version 3
run Default-0-20221206-12:10:13-33722
attr configname Default
attr datetime 20221206-12:10:13
attr datetimef 20221206-121013
attr experiment Default
attr inifile omnetpp.ini
attr iterationvars ""
attr iterationvarsd ""
attr iterationvarsf ""
attr measurement ""
attr network v4_0
attr processid 33722
attr repetition 0
attr replication #0
attr resultdir results
attr runnumber 0
attr seedset 0
config image-path ../../../inet4.4/images:../../../veins-5.2/images
config cmdenv-express-mode true
config cmdenv-autoflush true
config cmdenv-status-frequency 1s
config **.cmdenv-log-level info
config image-path ../../images
config network v4_0
config debug-on-errors true
config print-undisposed true
config **.scalar-recording true
config **.vector-recording true
config *.playgroundSizeX 3500m
config *.playgroundSizeY 3500m
config *.playgroundSizeZ 50m
config *.annotations.draw true
config *.obstacles.obstacles "xmldoc(\"config.xml\", \"//AnalogueModel[@type='SimpleObstacleShadowing']/obstacles\")"
config *.manager.updateInterval 0.5s
config *.manager.host "\"localhost\""
config *.manager.port 9999
config *.manager.autoShutdown true
config *.manager.launchConfig "xmldoc(\"v4_0_Messages.launchd.xml\")"
config *.rsu[0].mobility.x 2000
config *.rsu[0].mobility.y 2000
config *.rsu[0].mobility.z 3
config *.rsu[*].applType "\"RSU\""
config *.rsu[*].appl.headerLength "80 bit"
config *.rsu[*].appl.sendBeacons false
config *.rsu[*].appl.dataOnSch false
config *.rsu[*].appl.beaconInterval 1s
config *.rsu[*].appl.beaconUserPriority 7
config *.rsu[*].appl.dataUserPriority 5
config *.rsu[*].nic.phy80211p.antennaOffsetZ "0 m"
config *.connectionManager.sendDirect true
config *.connectionManager.maxInterfDist 2600m
config *.connectionManager.drawMaxIntfDist false
config *.**.nic.mac1609_4.useServiceChannel false
config *.**.nic.mac1609_4.txPower 20mW
config *.**.nic.mac1609_4.bitrate 6Mbps
config *.**.nic.phy80211p.minPowerLevel -110dBm
config *.**.nic.phy80211p.useNoiseFloor true
config *.**.nic.phy80211p.noiseFloor -98dBm
config *.**.nic.phy80211p.decider "xmldoc(\"config.xml\")"
config *.**.nic.phy80211p.analogueModels "xmldoc(\"config.xml\")"
config *.**.nic.phy80211p.usePropagationDelay true
config *.**.nic.phy80211p.antenna "xmldoc(\"antenna.xml\", \"/root/Antenna[@id='monopole']\")"
config *.node[*].nic.phy80211p.antennaOffsetY "0 m"
config *.node[*].nic.phy80211p.antennaOffsetZ "1.895 m"
config *.node[*].applType "\"VeinsApp\""
config *.node[*].appl.headerLength "80 bit"
config *.node[*].appl.sendBeacons false
config *.node[*].appl.dataOnSch false
config *.node[*].appl.beaconInterval 1s
config *.node[*].veinsmobility.x 0
config *.node[*].veinsmobility.y 0
config *.node[*].veinsmobility.z 0
config *.node[*].veinsmobility.setHostSpeed false
config *.node[*0].veinsmobility.accidentCount 0
config *.node[*0].veinsmobility.accidentStart 73s
config *.node[*0].veinsmobility.accidentDuration 50s

vector 0 v4_0.node[0].veinsmobility posx ETV
vector 1 v4_0.node[0].veinsmobility posy ETV
vector 2 v4_0.node[1].veinsmobility posx ETV
vector 3 v4_0.node[1].veinsmobility posy ETV
vector 4 v4_0.node[2].veinsmobility posx ETV
vector 5 v4_0.node[2].veinsmobility posy ETV
vector 6 v4_0.node[3].veinsmobility posx ETV
vector 7 v4_0.node[3].veinsmobility posy ETV
vector 8 v4_0.node[0].veinsmobility speed ETV
vector 9 v4_0.node[1].veinsmobility speed ETV
vector 10 v4_0.node[2].veinsmobility speed ETV
vector 11 v4_0.node[3].veinsmobility speed ETV
vector 12 v4_0.node[0].veinsmobility acceleration ETV
vector 13 v4_0.node[0].veinsmobility co2emission ETV
vector 14 v4_0.node[1].veinsmobility acceleration ETV
vector 15 v4_0.node[1].veinsmobility co2emission ETV
vector 16 v4_0.node[2].veinsmobility acceleration ETV
vector 17 v4_0.node[2].veinsmobility co2emission ETV
vector 18 v4_0.node[3].veinsmobility acceleration ETV
vector 19 v4_0.node[3].veinsmobility co2emission ETV
vector 20 v4_0.node[4].veinsmobility posx ETV
vector 21 v4_0.node[4].veinsmobility posy ETV
vector 22 v4_0.node[5].veinsmobility posx ETV
vector 23 v4_0.node[5].veinsmobility posy ETV
vector 24 v4_0.node[6].veinsmobility posx ETV
vector 25 v4_0.node[6].veinsmobility posy ETV
vector 26 v4_0.node[4].veinsmobility speed ETV
vector 27 v4_0.node[5].veinsmobility speed ETV
vector 28 v4_0.node[6].veinsmobility speed ETV
vector 29 v4_0.node[7].veinsmobility posx ETV
vector 30 v4_0.node[7].veinsmobility posy ETV
vector 31 v4_0.node[4].veinsmobility acceleration ETV
vector 32 v4_0.node[4].veinsmobility co2emission ETV
vector 33 v4_0.node[5].veinsmobility acceleration ETV
vector 34 v4_0.node[5].veinsmobility co2emission ETV
vector 35 v4_0.node[6].veinsmobility acceleration ETV
vector 36 v4_0.node[6].veinsmobility co2emission ETV
vector 37 v4_0.node[7].veinsmobility speed ETV
vector 38 v4_0.node[7].veinsmobility acceleration ETV
vector 39 v4_0.node[7].veinsmobility co2emission ETV
vector 40 v4_0.node[8].veinsmobility posx ETV
vector 41 v4_0.node[8].veinsmobility posy ETV
vector 42 v4_0.node[9].veinsmobility posx ETV
vector 43 v4_0.node[9].veinsmobility posy ETV
vector 44 v4_0.node[10].veinsmobility posx ETV
vector 45 v4_0.node[10].veinsmobility posy ETV
vector 46 v4_0.node[8].veinsmobility speed ETV
vector 47 v4_0.node[9].veinsmobility speed ETV
vector 48 v4_0.node[10].veinsmobility speed ETV
vector 49 v4_0.node[8].veinsmobility acceleration ETV
vector 50 v4_0.node[8].veinsmobility co2emission ETV
vector 51 v4_0.node[9].veinsmobility acceleration ETV
vector 52 v4_0.node[9].veinsmobility co2emission ETV
vector 53 v4_0.node[10].veinsmobility acceleration ETV
vector 54 v4_0.node[10].veinsmobility co2emission ETV
vector 55 v4_0.node[11].veinsmobility posx ETV
vector 56 v4_0.node[11].veinsmobility posy ETV
vector 57 v4_0.node[11].veinsmobility speed ETV
vector 58 v4_0.node[12].veinsmobility posx ETV
vector 59 v4_0.node[12].veinsmobility posy ETV
vector 60 v4_0.node[11].veinsmobility acceleration ETV
vector 61 v4_0.node[11].veinsmobility co2emission ETV
vector 62 v4_0.node[13].veinsmobility posx ETV
vector 63 v4_0.node[13].veinsmobility posy ETV
vector 64 v4_0.node[12].veinsmobility speed ETV
vector 65 v4_0.node[12].veinsmobility acceleration ETV
vector 66 v4_0.node[12].veinsmobility co2emission ETV
vector 67 v4_0.node[13].veinsmobility speed ETV
vector 68 v4_0.node[14].veinsmobility posx ETV
vector 69 v4_0.node[14].veinsmobility posy ETV
vector 70 v4_0.node[13].veinsmobility acceleration ETV
vector 71 v4_0.node[13].veinsmobility co2emission ETV
vector 72 v4_0.node[14].veinsmobility speed ETV
vector 73 v4_0.node[14].veinsmobility acceleration ETV
vector 74 v4_0.node[14].veinsmobility co2emission ETV
vector 75 v4_0.node[15].veinsmobility posx ETV
vector 76 v4_0.node[15].veinsmobility posy ETV
vector 77 v4_0.node[16].veinsmobility posx ETV
vector 78 v4_0.node[16].veinsmobility posy ETV
vector 79 v4_0.node[15].veinsmobility speed ETV
vector 80 v4_0.node[16].veinsmobility speed ETV
vector 81 v4_0.node[17].veinsmobility posx ETV
vector 82 v4_0.node[17].veinsmobility posy ETV
vector 83 v4_0.node[15].veinsmobility acceleration ETV
vector 84 v4_0.node[15].veinsmobility co2emission ETV
vector 85 v4_0.node[16].veinsmobility acceleration ETV
vector 86 v4_0.node[16].veinsmobility co2emission ETV
vector 87 v4_0.node[17].veinsmobility speed ETV
vector 88 v4_0.node[17].veinsmobility acceleration ETV
vector 89 v4_0.node[17].veinsmobility co2emission ETV
vector 90 v4_0.node[18].veinsmobility posx ETV
vector 91 v4_0.node[18].veinsmobility posy ETV
vector 92 v4_0.node[18].veinsmobility speed ETV
vector 93 v4_0.node[18].veinsmobility acceleration ETV
vector 94 v4_0.node[18].veinsmobility co2emission ETV
vector 95 v4_0.node[19].veinsmobility posx ETV
vector 96 v4_0.node[19].veinsmobility posy ETV
vector 97 v4_0.node[19].veinsmobility speed ETV
vector 98 v4_0.node[20].veinsmobility posx ETV
vector 99 v4_0.node[20].veinsmobility posy ETV
vector 100 v4_0.node[19].veinsmobility acceleration ETV
vector 101 v4_0.node[19].veinsmobility co2emission ETV
vector 102 v4_0.node[20].veinsmobility speed ETV
vector 103 v4_0.node[20].veinsmobility acceleration ETV
vector 104 v4_0.node[20].veinsmobility co2emission ETV
vector 105 v4_0.node[21].veinsmobility posx ETV
vector 106 v4_0.node[21].veinsmobility posy ETV
vector 107 v4_0.node[21].veinsmobility speed ETV
vector 108 v4_0.node[21].veinsmobility acceleration ETV
vector 109 v4_0.node[21].veinsmobility co2emission ETV
0	2	0.5	2631.7350595066
0	3	1	2631.6926603558
0	4	1.5	2631.6229630968
0	5	2	2631.5282912727
0	6	2.5	2631.4086490547
0	7	3	2631.2604225505
0	8	3.5	2631.0878849679
0	9	4	2630.892145407
0	10	4.5	2630.6724391839
0	11	5	2630.4276965775
0	12	5.5	2630.1573760558
0	13	6	2629.8625589869
0	14	6.5	2629.5448277204
0	15	7	2629.2030409186
0	16	7.5	2628.6408029457
0	17	8	2627.8116486142
0	18	8.5	2626.9391961291
0	19	9	2626.0184382494
0	20	9.5	2625.0464957781
0	21	10	2624.0224871623
0	22	10.5	2622.9469447999
0	23	11	2621.8176152725
0	24	11.5	2620.6311656146
0	25	12	2619.3974312966
0	26	12.5	2618.1143565062
0	27	13	2616.7776122186
0	28	13.5	2615.3838827169
0	29	14	2613.933876192
0	30	14.5	2612.430882662
0	31	15	2610.8750346797
0	32	15.5	2609.2680088609
0	33	16	2607.6054052793
0	34	16.5	2605.8840043985
0	35	17	2604.1164308966
0	36	17.5	2602.2985366323
0	37	18	2600.4298359854
0	38	18.5	2598.5080573106
0	39	19	2596.5386160006
0	40	19.5	2594.5145886635
0	41	20	2592.4347862339
0	42	20.5	2590.3038963825
0	43	21	2588.1187586169
0	44	21.5	2585.876224402
0	45	22	2583.5771736375
0	46	22.5	2581.2272843939
0	47	23	2578.8250272302
0	48	23.5	2576.3650223406
0	49	24	2573.8493392041
0	50	24.5	2571.2797833098
0	51	25	2568.6863330575
0	52	25.5	2566.0916482897
0	53	26	2563.498984852
0	54	26.5	2560.9030062138
0	55	27	2558.3092978451
0	56	27.5	2555.7130857587
0	57	28	2553.1184064959
0	58	28.5	2550.5230329406
0	59	29	2547.9285410434
0	60	29.5	2545.3335305103
0	61	30	2542.739428506
0	62	30.5	2540.1439816806
0	63	31	2537.5483003752
0	64	31.5	2534.9544071521
0	65	32	2532.3592119595
0	66	32.5	2529.7648866439
0	67	33	2527.1705369354
0	68	33.5	2524.5772709372
0	69	34	2521.9808218135
0	70	34.5	2519.3844282731
0	71	35	2516.7892806227
0	72	35.5	2514.1939739176
0	73	36	2511.5996591776
0	74	36.5	2509.0064994983
0	75	37	2506.4130835157
0	76	37.5	2503.8182156581
0	77	38	2501.222583251
0	78	38.5	2498.628201986
0	79	39	2496.0341355706
0	80	39.5	2493.4383296432
0	81	40	2490.8435546545
0	82	40.5	2488.2493534428
0	83	41	2485.655102922
0	84	41.5	2483.0601970108
0	85	42	2480.4656198064
0	86	42.5	2477.8701654738
0	87	43	2475.2771442261
0	88	43.5	2472.6828952592
0	89	44	2470.0874233606
0	90	44.5	2467.4937271242
0	91	45	2464.8991101197
0	92	45.5	2462.3044010754
0	93	46	2459.7108201223
0	94	46.5	2457.1153178372
0	95	47	2454.51942465
0	96	47.5	2452.1049758391
0	97	48	2450.4052049746
0	98	48.5	2448.7039828986
0	181	49	2447.0023738908
0	182	49.5	2445.4085903175
0	183	50	2445.022678212
0	184	50.5	2444.6394808504
0	350	51	2444.2161111271
0	430	51.5	2443.8162894422
0	431	52	2443.4598866852
0	432	52.5	2443.1468846647
0	433	53	2442.8773015719
0	434	53.5	2442.6511374067
0	435	54	2442.4766616474
0	436	54.5	2442.4362006881
0	437	55	2442.3958884771
0	438	55.5	2442.3652781798
0	439	56	2442.3360842583
0	440	56.5	2442.3120745602
0	441	57	2442.2866568071
0	442	57.5	2442.2598584306
0	443	58	2442.2316234537
0	444	58.5	2442.2020681472
0	445	59	2442.1713431246
0	446	59.5	2442.1391856663
0	447	60	2442.088958404
0	448	60.5	2441.8653528244
0	449	61	2442.0513644307
0	450	61.5	2442.4767216791
0	451	62	2442.9179392915
0	452	62.5	2443.3737840716
0	453	63	2443.8517347983
0	454	63.5	2444.4217074605
0	455	64	2445.0086127939
0	456	64.5	2445.6133645846
0	457	65	2446.2357824997
0	458	65.5	2446.8771158312
0	459	66	2447.5357486801
0	460	66.5	2448.1992618727
0	461	67	2448.862762871
0	462	67.5	2449.5261625623
0	463	68	2450.1895460316
0	464	68.5	2450.8528824874
0	465	69	2451.515964735
0	466	69.5	2452.1788810027
0	467	70	2452.8420530326
0	468	70.5	2453.5050027478
0	469	71	2453.751541972
0	470	71.5	2453.1490988773
0	471	72	2452.5468109112
0	472	72.5	2451.9442483508
0	473	73	2451.3416938266
0	474	73.5	2450.7399062938
0	475	74	2450.1373549905
0	476	74.5	2449.5348259914
0	477	75	2448.9324109849
0	478	75.5	2448.3303403773
0	479	76	2447.728228266
0	480	76.5	2447.1253676225
0	481	77	2446.5228132036
0	482	77.5	2445.9200862955
0	483	78	2445.3180265242
0	484	78.5	2444.7152224985
0	485	79	2444.1130847682
0	486	79.5	2443.510431627
0	487	80	2442.9081520267
0	488	80.5	2442.1332035309
0	489	81	2440.7936101259
0	490	81.5	2439.5512354538
0	491	82	2438.899732969
0	492	82.5	2438.3096163163
0	493	83	2437.7200324618
0	494	83.5	2437.1300227431
0	495	84	2436.539951298
0	496	84.5	2435.7126767951
0	497	85	2429.7852410445
0	498	85.5	2422.7686509702
0	499	86	2415.8721814477
0	500	86.5	2408.9791410661
0	501	87	2402.0779896723
0	502	87.5	2395.1774549984
0	503	88	2388.2802261937
0	504	88.5	2381.39078617
0	505	89	2374.5222132367
0	506	89.5	2367.6757823669
0	507	90	2361.2592072034
0	508	90.5	2356.1270752498
0	509	91	2351.4646095863
0	510	91.5	2347.5448177672
0	511	92	2344.2246290718
0	512	92.5	2341.6730156164
0	513	93	2339.2924096435
0	514	93.5	2336.3191095918
0	515	94	2332.9976570519
0	516	94.5	2329.4026071043
0	517	95	2325.4338661636
0	518	95.5	2321.2993844303
0	519	96	2317.107679411
0	520	96.5	2312.6803619494
0	521	97	2308.44003433
0	522	97.5	2304.7419773848
0	523	98	2300.8849937643
0	524	98.5	2296.8674840016
0	525	99	2292.6851446627
0	526	99.5	2288.3465893663
0	527	100	2283.8483515318
0	528	100.5	2279.1784832104
0	529	101	2274.3255248921
0	530	101.5	2269.3488581907
0	531	102	2264.3394214377
0	532	102.5	2259.3282973289
0	533	103	2254.3205200697
0	534	103.5	2249.313378618
0	535	104	2244.3055711855
0	536	104.5	2239.2996611148
0	537	105	2234.2962788123
0	538	105.5	2229.288373703
0	539	106	2224.2828552717
0	540	106.5	2219.2777669878
0	541	107	2214.2720176054
0	542	107.5	2209.2650649011
0	543	108	2204.2538834945
0	544	108.5	2199.2487562244
0	545	109	2194.2415705478
0	546	109.5	2189.2342651787
0	547	110	2184.221903124
0	548	110.5	2179.2133335753
0	549	111	2174.2052635064
0	550	111.5	2169.1943040565
0	551	112	2164.1820128004
0	552	112.5	2159.1729953357
0	553	113	2154.1639023174
0	554	113.5	2149.1558297611
0	555	114	2144.145455837
0	556	114.5	2139.1378213569
1	2	0.5	3022.4123751242
1	3	1	3022.0353440456
1	4	1.5	3021.415566708
1	5	2	3020.5737050353
1	6	2.5	3019.5097961174
1	7	3	3018.1917037079
1	8	3.5	3016.6574269645
1	9	4	3014.916828474
1	10	4.5	3012.9631083431
1	11	5	3010.786754163
1	12	5.5	3008.3829504047
1	13	6	3005.7613130454
1	14	6.5	3002.9359130058
1	15	7	2999.8966010297
1	16	7.5	2996.6450931979
1	17	8	2993.1979513299
1	18	8.5	2989.5708009005
1	19	9	2985.7428247118
1	20	9.5	2981.7020527357
1	21	10	2977.4448199878
1	22	10.5	2972.9733398687
1	23	11	2968.2782439757
1	24	11.5	2963.345675773
1	25	12	2958.2165254327
1	26	12.5	2952.8822460799
1	27	13	2947.324840147
1	28	13.5	2941.5305228094
1	29	14	2935.5022383137
1	30	14.5	2929.2536646416
1	31	15	2922.7853528736
1	32	15.5	2916.1042734012
1	33	16	2909.1921338886
1	34	16.5	2902.0355493743
1	35	17	2894.6870059334
1	36	17.5	2887.1292580068
1	37	18	2879.3602866642
1	38	18.5	2871.3706477275
1	39	19	2863.1828552512
1	40	19.5	2854.7681257948
1	41	20	2846.1215159176
1	42	20.5	2837.262514228
1	43	21	2828.1779812351
1	44	21.5	2818.8548271619
1	45	22	2809.2967101177
1	46	22.5	2799.5272362214
1	47	23	2789.5400469452
1	48	23.5	2779.3127761837
1	49	24	2768.854027628
1	50	24.5	2758.171307452
1	51	25	2747.3892484205
1	52	25.5	2736.6020569913
1	53	26	2725.8232690776
1	54	26.5	2715.0306984866
1	55	27	2704.2475663582
1	56	27.5	2693.4540252248
1	57	28	2682.6668566819
1	58	28.5	2671.8768016752
1	59	29	2661.0903363554
1	60	29.5	2650.3012150247
1	61	30	2639.5158710303
1	62	30.5	2628.7249357523
1	63	31	2617.933025592
1	64	31.5	2607.148549634
1	65	32	2596.3586605554
1	66	32.5	2585.5723881116
1	67	33	2574.7860142523
1	68	33.5	2564.0041460712
1	69	34	2553.2090435969
1	70	34.5	2542.4141722191
1	71	35	2531.6244808035
1	72	35.5	2520.8341280958
1	73	36	2510.0478996225
1	74	36.5	2499.2664734768
1	75	37	2488.4839817137
1	76	37.5	2477.6954535758
1	77	38	2466.9037467167
1	78	38.5	2456.1172416564
1	79	39	2445.3320456278
1	80	39.5	2434.5396173326
1	81	40	2423.7514753109
1	82	40.5	2412.9657188477
1	83	41	2402.1797573743
1	84	41.5	2391.3910710234
1	85	42	2380.6031350009
1	86	42.5	2369.8111122204
1	87	43	2359.0292063234
1	88	43.5	2348.2421955122
1	89	44	2337.4500996917
1	90	44.5	2326.6653871592
1	91	45	2315.8768460304
1	92	45.5	2305.0913538206
1	93	46	2294.3107303949
1	94	46.5	2283.5221206537
1	95	47	2272.7318860656
1	96	47.5	2261.9062922131
1	97	48	2250.9511356279
1	98	48.5	2239.9866258716
1	181	49	2229.0196223091
1	182	49.5	2218.0480424091
1	183	50	2206.9662254723
1	184	50.5	2195.9623648738
1	350	51	2185.7672492983
1	430	51.5	2176.5675061094
1	431	52	2168.3668157468
1	432	52.5	2161.1647596415
1	433	53	2154.9617563616
1	434	53.5	2149.7578059072
1	435	54	2145.5507062245
1	436	54.5	2142.2868555058
1	437	55	2139.0350038158
1	438	55.5	2135.5093273697
1	439	56	2131.7345388792
1	440	56.5	2127.7155241957
1	441	57	2123.4608133426
1	442	57.5	2118.9749981649
1	443	58	2114.2487085368
1	444	58.5	2109.3014072562
1	445	59	2104.1583056375
1	446	59.5	2098.7754267631
1	447	60	2093.15354414
1	448	60.5	2087.3117893916
1	449	61	2081.2393657118
1	450	61.5	2074.9422290567
1	451	62	2068.410290055
1	452	62.5	2061.6618053745
1	453	63	2054.7280112086
1	454	63.5	2047.6005479479
1	455	64	2040.2613429669
1	456	64.5	2032.6989694415
1	457	65	2024.9156824239
1	458	65.5	2016.8958596112
1	459	66	2008.6597076971
1	460	66.5	2000.3625274682
1	461	67	1992.0654997295
1	462	67.5	1983.769738825
1	463	68	1975.4741807766
1	464	68.5	1967.1792106293
1	465	69	1958.8874193346
1	466	69.5	1950.5977036031
1	467	70	1942.3047895888
1	468	70.5	1934.0146556012
1	469	71	1925.7164624287
1	470	71.5	1917.4184819944
1	471	72	1909.1226382814
1	472	72.5	1900.8230123408
1	473	73	1892.5234970888
1	474	73.5	1884.234546287
1	475	74	1875.9350753976
1	476	74.5	1867.6359117264
1	477	75	1859.3383181756
1	478	75.5	1851.0454683341
1	479	76	1842.7520468254
1	480	76.5	1834.4483151231
1	481	77	1826.1488013212
1	482	77.5	1817.8469116725
1	483	78	1809.5542110885
1	484	78.5	1801.2512592338
1	485	79	1792.9574848516
1	486	79.5	1784.6566112619
1	487	80	1776.3608827796
1	488	80.5	1768.0838922346
1	489	81	1759.8780268263
1	490	81.5	1751.6607330609
1	491	82	1743.3698139209
1	492	82.5	1735.0660295943
1	493	83	1726.7697424972
1	494	83.5	1718.4674628852
1	495	84	1710.1643146928
1	496	84.5	1702.2295241989
1	497	85	1698.2365147918
1	498	85.5	1697.6016853517
1	499	86	1696.9617102724
1	500	86.5	1696.3088281453
1	501	87	1695.6551777748
1	502	87.5	1695.001585817
1	503	88	1694.3483069791
1	504	88.5	1693.5636650212
1	505	89	1692.6533705099
1	506	89.5	1691.630970167
1	507	90	1689.6793773212
1	508	90.5	1685.0530402381
1	509	91	1680.8500817036
1	510	91.5	1677.316603139
1	511	92	1674.6203257293
1	512	92.5	1672.5616376
1	513	93	1670.6409214176
1	514	93.5	1669.2249955721
1	515	94	1668.0021722484
1	516	94.5	1666.9745002547
1	517	95	1666.5642698202
1	518	95.5	1666.5297237067
1	519	96	1667.9247177588
1	520	96.5	1669.3981233295
1	521	97	1671.6142065562
1	522	97.5	1675.1524139913
1	523	98	1678.8426784519
1	524	98.5	1682.6865302697
1	525	99	1686.6880868608
1	526	99.5	1690.8391069323
1	527	100	1695.1429072218
1	528	100.5	1699.6109192232
1	529	101	1704.2541071065
1	530	101.5	1709.0141057409
1	531	102	1713.8051984264
1	532	102.5	1718.5979049215
1	533	103	1723.3864237554
1	534	103.5	1728.1738054547
1	535	104	1732.961823904
1	536	104.5	1737.7508197613
1	537	105	1742.5386319514
1	538	105.5	1747.3307720842
1	539	106	1752.1206283681
1	540	106.5	1756.9100278867
1	541	107	1761.6993043618
1	542	107.5	1766.4897321202
1	543	108	1771.2842057114
1	544	108.5	1776.0728869773
1	545	109	1780.8635376338
1	546	109.5	1785.6543028066
1	547	110	1790.4486802779
1	548	110.5	1795.2372596459
1	549	111	1800.0253614718
1	550	111.5	1804.8162257699
1	551	112	1809.6083633779
1	552	112.5	1814.3975836197
1	553	113	1819.1890462004
1	554	113.5	1823.9795326553
1	555	114	1828.7722204905
1	556	114.5	1833.5622879025
2	2	0.5	1287.3631844854
2	3	1	1287.3971152697
2	4	1.5	1287.4522898303
2	5	2	1287.5264110332
2	6	2.5	1287.62113957
2	7	3	1287.7358140606
2	8	3.5	1287.8709316116
2	9	4	1288.0250132503
2	10	4.5	1288.1995021269
2	11	5	1288.3803450145
2	12	5.5	1288.5613218796
2	13	6	1288.7420702237
2	14	6.5	1288.9232484703
2	15	7	1289.1040265976
2	16	7.5	1289.2841547827
2	17	8	1289.4648170919
2	18	8.5	1289.6461204254
2	19	9	1289.8267889973
2	20	9.5	1290.0076002722
2	21	10	1290.1889275151
2	22	10.5	1290.3695223263
2	23	11	1290.5501811963
2	24	11.5	1292.6540879257
2	25	12	1297.5639150366
2	26	12.5	1302.8378810985
2	27	13	1306.2425469026
2	28	13.5	1308.2562478072
2	29	14	1306.9227445516
2	30	14.5	1302.2154254551
2	31	15	1297.5804711034
2	32	15.5	1293.6998546909
2	33	16	1292.3351438564
2	34	16.5	1292.4916450585
2	35	17	1292.6480421006
2	36	17.5	1292.8044126967
2	37	18	1292.9607878359
2	38	18.5	1293.1163144546
2	39	19	1293.2722946536
2	40	19.5	1293.42863945
2	41	20	1293.5848936621
2	42	20.5	1293.7413971183
2	43	21	1293.8970749625
2	44	21.5	1294.0528945931
2	45	22	1294.2089592799
2	46	22.5	1294.3654001004
2	47	23	1294.5220096927
2	48	23.5	1294.6781146179
2	49	24	1294.8335943035
2	50	24.5	1294.9893859179
2	51	25	1295.1450464214
2	52	25.5	1295.3011772342
2	53	26	1295.4576196355
2	54	26.5	1295.5972772553
2	55	27	1295.7222422449
2	56	27.5	1295.8614929161
2	57	28	1296.0132666022
2	58	28.5	1296.1741153949
2	59	29	1296.3396362179
2	60	29.5	1296.5189786375
2	61	30	1296.7132164361
2	62	30.5	1296.8634114895
2	63	31	1296.9796594604
2	64	31.5	1297.0746293006
2	65	32	1297.1695770607
2	66	32.5	1297.2645506554
2	67	33	1297.359677108
2	68	33.5	1297.0053546188
2	69	34	1296.5672262392
2	70	34.5	1296.0991005796
2	71	35	1295.6436717052
2	72	35.5	1295.2007070808
2	73	36	1294.7851236622
2	74	36.5	1294.5125636539
2	75	37	1294.4019141947
2	76	37.5	1294.4444998708
2	77	38	1294.4870621768
2	78	38.5	1294.5296114372
2	79	39	1294.5974091637
2	80	39.5	1294.7275687865
2	81	40	1294.8578931703
2	82	40.5	1294.9880754326
2	83	41	1295.1181630467
2	84	41.5	1295.2483270118
2	85	42	1295.3785065116
2	86	42.5	1295.5633635888
2	87	43	1296.3890562203
2	88	43.5	1296.9281189074
2	89	44	1297.3632236316
2	90	44.5	1297.6261571537
2	91	45	1297.8244374366
2	92	45.5	1298.090879785
2	93	46	1298.4361608364
2	94	46.5	1298.9411975638
2	95	47	1299.6294862628
2	96	47.5	1300.4202688612
2	97	48	1301.2810126139
2	98	48.5	1302.2060202378
2	181	49	1306.4554387565
2	182	49.5	1307.479871987
2	183	50	1308.5871834405
2	184	50.5	1309.6923060738
2	350	51	1310.7983917224
2	430	51.5	1311.9028234141
2	431	52	1313.006744389
2	432	52.5	1314.1134096591
2	433	53	1315.2160882422
2	434	53.5	1316.3219116668
2	435	54	1317.4548332968
2	436	54.5	1318.7731161946
2	437	55	1320.0808581468
2	438	55.5	1321.3880658024
2	439	56	1322.6369496842
2	440	56.5	1323.8475046512
2	441	57	1325.0410191318
2	442	57.5	1326.2178633368
2	443	58	1327.3984415013
2	444	58.5	1328.580488653
2	445	59	1329.7583094555
2	446	59.5	1330.8109268157
2	447	60	1331.4094457534
2	448	60.5	1332.0075523928
2	449	61	1336.1744907856
2	450	61.5	1343.4164503298
2	451	62	1350.6563991281
2	452	62.5	1357.8923533631
2	453	63	1365.1282095003
2	454	63.5	1372.3881822573
2	455	64	1379.6263951102
2	456	64.5	1386.8612839555
2	457	65	1394.0992780236
2	458	65.5	1401.3384782862
2	459	66	1408.5765585736
2	460	66.5	1415.8357403666
2	461	67	1423.0714272553
2	462	67.5	1430.3186811844
2	463	68	1437.5533606398
2	464	68.5	1444.7915825465
2	465	69	1452.0375515566
2	466	69.5	1459.2902829245
2	467	70	1466.5434528759
2	468	70.5	1473.7848625788
2	469	71	1481.031117663
2	470	71.5	1488.2612899493
2	471	72	1495.4986923692
2	472	72.5	1502.7408661222
2	473	73	1509.9986161843
2	474	73.5	1517.2376443937
2	475	74	1524.4720099461
2	476	74.5	1531.71819129
2	477	75	1538.9704064446
2	478	75.5	1546.2147801785
2	479	76	1553.4538177246
2	480	76.5	1560.6760009221
2	481	77	1567.9040942923
2	482	77.5	1575.137491592
2	483	78	1582.3420584303
2	484	78.5	1587.3453039613
2	485	79	1587.7779767354
2	486	79.5	1587.8855288679
2	487	80	1587.9931294102
2	488	80.5	1588.1009651484
2	489	81	1588.2084718806
2	490	81.5	1588.31614404
2	491	82	1588.4239815563
2	492	82.5	1588.5337429432
2	493	83	1588.8369385853
2	494	83.5	1589.1252397633
2	495	84	1589.2773399154
2	496	84.5	1589.4291516602
2	497	85	1589.5812449523
2	498	85.5	1589.7329694574
2	499	86	1589.8844763376
2	500	86.5	1590.0363578028
2	501	87	1590.1882910981
2	502	87.5	1590.4098979126
2	503	88	1590.7251339958
2	504	88.5	1591.1382268155
2	505	89	1591.5505012132
2	506	89.5	1591.9628892561
2	507	90	1592.3752009615
2	508	90.5	1592.7875668333
2	509	91	1593.2001376564
2	510	91.5	1593.6113350724
2	511	92	1594.0251788369
2	512	92.5	1594.4422920776
2	513	93	1594.8590693322
2	514	93.5	1595.2764371281
2	515	94	1595.6933852531
2	516	94.5	1596.1096217266
2	517	95	1596.526844135
2	518	95.5	1596.9449260025
2	519	96	1597.3616517392
2	520	96.5	1597.7413076578
2	521	97	1598.0607184181
2	522	97.5	1598.3058058301
2	523	98	1598.5511826749
2	524	98.5	1598.7967753466
2	525	99	1599.0423456802
2	526	99.5	1599.2876979628
2	527	100	1599.5332750847
2	528	100.5	1599.7791763503
2	529	101	1600.0184236951
2	530	101.5	1600.2026371071
2	531	102	1600.3373361989
2	532	102.5	1600.4594903698
2	533	103	1600.5819684596
2	534	103.5	1600.7042936939
2	535	104	1600.8264384546
2	536	104.5	1600.9487193601
2	537	105	1601.0709040524
2	538	105.5	1601.1641071894
2	539	106	1601.2311282998
2	540	106.5	1601.2776764769
2	541	107	1601.3241144407
2	542	107.5	1601.3706381781
2	543	108	1601.4170401545
2	544	108.5	1601.4589849019
2	545	109	1601.4458389501
2	546	109.5	1601.3796374596
2	547	110	1601.4060324163
2	548	110.5	1601.9664459233
2	549	111	1602.5988705932
2	550	111.5	1603.2335341185
2	551	112	1603.8704587637
2	552	112.5	1604.5223979673
2	553	113	1605.1776744465
2	554	113.5	1605.8334251653
2	555	114	1606.4904979747
2	556	114.5	1607.1453994373
3	2	0.5	1828.227079195
3	3	1	1827.4147938192
3	4	1.5	1826.0939434571
3	5	2	1824.3195203077
3	6	2.5	1822.0517682778
3	7	3	1819.3065204602
3	8	3.5	1816.071876375
3	9	4	1812.3832418723
3	10	4.5	1808.2060686797
3	11	5	1803.8767837603
3	12	5.5	1799.544291487
3	13	6	1795.2172698919
3	14	6.5	1790.8799566505
3	15	7	1786.5522220582
3	16	7.5	1782.2400467461
3	17	8	1777.9150847774
3	18	8.5	1773.5747770192
3	19	9	1769.2496651299
3	20	9.5	1764.9211369995
3	21	10	1760.5802568644
3	22	10.5	1756.2569107665
3	23	11	1751.9320311304
3	24	11.5	1748.6357935062
3	25	12	1748.9207613645
3	26	12.5	1749.2960902946
3	27	13	1744.5079231691
3	28	13.5	1738.9547530329
3	29	14	1732.2668259898
3	30	14.5	1727.1903217072
3	31	15	1722.99983963
3	32	15.5	1718.9507568683
3	33	16	1714.6683898177
3	34	16.5	1710.3294051997
3	35	17	1705.9933084091
3	36	17.5	1701.6579448339
3	37	18	1697.3224553019
3	38	18.5	1693.010490939
3	39	19	1688.6859510969
3	40	19.5	1684.3513028137
3	41	20	1680.0191659778
3	42	20.5	1675.6801188635
3	43	21	1671.363961787
3	44	21.5	1667.0438736901
3	45	22	1662.7169914255
3	46	22.5	1658.3796808859
3	47	23	1654.0376911573
3	48	23.5	1649.7096932884
3	49	24	1645.3990301434
3	50	24.5	1641.0797187919
3	51	25	1636.7640424827
3	52	25.5	1632.4353268854
3	53	26	1628.0979725132
3	54	26.5	1624.2259750105
3	55	27	1620.7613296257
3	56	27.5	1616.6744660605
3	57	28	1612.0453686332
3	58	28.5	1606.8896398498
3	59	29	1601.2832893953
3	60	29.5	1595.2087880848
3	61	30	1588.6297658775
3	62	30.5	1581.530589656
3	63	31	1574.2655425621
3	64	31.5	1567.0154586174
3	65	32	1559.7670602947
3	66	32.5	1552.5166897373
3	67	33	1545.2546498692
3	68	33.5	1538.0031152302
3	69	34	1530.7733739205
3	70	34.5	1523.5534358639
3	71	35	1516.3247553399
3	72	35.5	1509.0925059915
3	73	36	1501.846289414
3	74	36.5	1494.5961931935
3	75	37	1487.3409345467
3	76	37.5	1480.0942719905
3	77	38	1472.851586258
3	78	38.5	1465.6111204317
3	79	39	1458.3558320208
3	80	39.5	1451.1042794175
3	81	40	1443.8435475258
3	82	40.5	1436.5907336148
3	83	41	1429.3431928195
3	84	41.5	1422.0913982913
3	85	42	1414.8387382878
3	86	42.5	1407.595704902
3	87	43	1400.7349858135
3	88	43.5	1394.9460962126
3	89	44	1390.2735910024
3	90	44.5	1386.7135161944
3	91	45	1383.2086206041
3	92	45.5	1379.1482868316
3	93	46	1374.6234036069
3	94	46.5	1369.6693310766
3	95	47	1364.2835673774
3	96	47.5	1358.4462845782
3	97	48	1352.1681404524
3	98	48.5	1345.4212646699
3	181	49	1338.7021733411
3	182	49.5	1331.5336601986
3	183	50	1324.3572842069
3	184	50.5	1317.1950937416
3	350	51	1310.0266620703
3	430	51.5	1302.8689495297
3	431	52	1295.7145468947
3	432	52.5	1288.5423587523
3	433	53	1281.3960079355
3	434	53.5	1274.2292757118
3	435	54	1267.0766042247
3	436	54.5	1259.9630619744
3	437	55	1252.8548516864
3	438	55.5	1245.7495455584
3	439	56	1238.6269551748
3	440	56.5	1231.5193399116
3	441	57	1224.386536085
3	442	57.5	1217.2831780165
3	443	58	1210.1572820013
3	444	58.5	1203.0225192718
3	445	59	1195.9132665219
3	446	59.5	1188.7771325214
3	447	60	1181.5869250158
3	448	60.5	1174.4016705891
3	449	61	1170.008220369
3	450	61.5	1170.374673482
3	451	62	1170.7601827504
3	452	62.5	1170.9340754179
3	453	63	1170.9734676257
3	454	63.5	1171.0129911248
3	455	64	1171.0523961624
3	456	64.5	1171.0917831045
3	457	65	1171.131186951
3	458	65.5	1171.1705973642
3	459	66	1171.2100016801
3	460	66.5	1171.2972164741
3	461	67	1171.4328529984
3	462	67.5	1171.5009855609
3	463	68	1171.5199146019
3	464	68.5	1171.5388529105
3	465	69	1171.5177570311
3	466	69.5	1171.4805782028
3	467	70	1171.4433971271
3	468	70.5	1171.4062763359
3	469	71	1171.2589158835
3	470	71.5	1171.0261147637
3	471	72	1170.7930808431
3	472	72.5	1170.5598932933
3	473	73	1170.3262042087
3	474	73.5	1170.0931179402
3	475	74	1169.8601818038
3	476	74.5	1169.6268652147
3	477	75	1169.3206358878
3	478	75.5	1168.866070888
3	479	76	1168.4118407201
3	480	76.5	1167.8725070758
3	481	77	1167.3215934001
3	482	77.5	1166.7702754671
3	483	78	1166.0935406061
3	484	78.5	1161.5683879014
3	485	79	1154.3423471684
3	486	79.5	1147.0996291693
3	487	80	1139.8536511892
3	488	80.5	1132.5918347677
3	489	81	1125.3521740912
3	490	81.5	1118.1013733102
3	491	82	1110.8394371495
3	492	82.5	1103.6105565652
3	493	83	1096.3652262213
3	494	83.5	1089.1128268093
3	495	84	1081.8552893801
3	496	84.5	1074.6115134563
3	497	85	1067.3543033525
3	498	85.5	1060.1146901157
3	499	86	1052.8854609597
3	500	86.5	1045.6383582922
3	501	87	1038.3887825208
3	502	87.5	1031.1460986752
3	503	88	1023.8992039757
3	504	88.5	1016.6613746099
3	505	89	1009.4378848756
3	506	89.5	1002.2124039559
3	507	90	994.98826054949
3	508	90.5	987.76316809002
3	509	91	980.53448466584
3	510	91.5	973.3009323366
3	511	92	966.06413901038
3	512	92.5	958.82827536669
3	513	93	951.5982402321
3	514	93.5	944.35796069633
3	515	94	937.12496139389
3	516	94.5	929.90430745017
3	517	95	922.66655001976
3	518	95.5	915.41388314031
3	519	96	908.18474171218
3	520	96.5	900.94451775216
3	521	97	893.69341683853
3	522	97.5	886.46022794209
3	523	98	879.21849709563
3	524	98.5	871.97039662395
3	525	99	864.72295541037
3	526	99.5	857.48194946442
3	527	100	850.23430790752
3	528	100.5	842.97709999513
3	529	101	835.73303169571
3	530	101.5	828.46427748352
3	531	102	821.22452793829
3	532	102.5	813.98902391084
3	533	103	806.7343333317
3	534	103.5	799.48869678006
3	535	104	792.25375014544
3	536	104.5	785.0107393004
3	537	105	777.77342741005
3	538	105.5	770.51929793227
3	539	106	763.26567549352
3	540	106.5	756.00788374245
3	541	107	748.7672764156
3	542	107.5	741.51329527982
3	543	108	734.27829912305
3	544	108.5	727.02068087552
3	545	109	719.77726148907
3	546	109.5	712.53444096819
3	547	110	705.29452785477
3	548	110.5	698.0729063591
3	549	111	690.86977537628
3	550	111.5	683.65393703338
3	551	112	676.4239816023
3	552	112.5	669.20362236071
3	553	113	661.99558108952
3	554	113.5	654.78232318256
3	555	114	647.55452227965
3	556	114.5	640.35060619004
4	2	0.5	243.31602054439
4	3	1	243.30913937406
4	4	1.5	243.29782204749
4	5	2	243.28247408115
4	6	2.5	243.26342766208
4	7	3	243.24040584138
4	8	3.5	243.21380397596
4	9	4	243.18310993013
4	10	4.5	243.1484340321
4	11	5	243.10924115102
4	12	5.5	243.0663145869
4	13	6	243.01953350392
4	14	6.5	242.96903013124
4	15	7	242.91449734592
4	16	7.5	242.85595049639
4	17	8	242.79419269238
4	18	8.5	242.73295519606
4	19	9	242.26508669544
4	20	9.5	241.68610673898
4	21	10	241.10712287819
4	22	10.5	240.52771094977
4	23	11	239.94936719164
4	24	11.5	239.37215495552
4	25	12	238.79357286438
4	26	12.5	238.21557328652
4	27	13	237.63733651803
4	28	13.5	237.05823889328
4	29	14	236.48010755552
4	30	14.5	235.90121453989
4	31	15	235.80409846641
4	32	15.5	235.0742950117
4	33	16	232.5949971755
4	34	16.5	230.11229897349
4	35	17	227.62779660232
4	36	17.5	225.14764125971
4	37	18	222.66813646222
4	38	18.5	220.19162743364
4	39	19	217.70837988122
4	40	19.5	215.22731687815
4	41	20	212.75282488286
4	42	20.5	210.27264811459
4	43	21	207.79659313092
4	44	21.5	205.31452671322
4	45	22	202.83089691552
4	46	22.5	200.3480367423
4	47	23	197.87148526474
4	48	23.5	195.38814299658
4	49	24	192.90354517207
4	50	24.5	190.41885485034
4	51	25	187.93716550677
4	52	25.5	185.45432597469
4	53	26	182.97469523118
4	54	26.5	180.49361961486
4	55	27	179.61417745787
4	56	27.5	178.8559691062
4	57	28	178.09591954772
4	58	28.5	177.33738778485
4	59	29	176.57814397954
4	60	29.5	175.81934606808
4	61	30	175.05880281387
4	62	30.5	174.29889175657
4	63	31	173.54065930506
4	64	31.5	172.78142890846
4	65	32	172.02238947642
4	66	32.5	171.26402847329
4	67	33	170.50400739827
4	68	33.5	169.79079523124
4	69	34	169.44349024096
4	70	34.5	169.49539697205
4	71	35	169.59012659499
4	72	35.5	169.6847860238
4	73	36	169.7796467169
4	74	36.5	169.87425518362
4	75	37	170.12243900937
4	76	37.5	170.40556825069
4	77	38	170.68902704504
4	78	38.5	170.97228521679
4	79	39	171.25559044897
4	80	39.5	171.5390419754
4	81	40	171.82247454638
4	82	40.5	172.10592645709
4	83	41	172.38946074515
4	84	41.5	172.6729433944
4	85	42	172.95657042495
4	86	42.5	173.23988411739
4	87	43	173.61277161411
4	88	43.5	174.14280516421
4	89	44	174.67226522055
4	90	44.5	176.09652246546
4	91	45	178.58705503435
4	92	45.5	181.07482282538
4	93	46	183.56480070169
4	94	46.5	186.05373565783
4	95	47	188.58123323927
4	96	47.5	191.17984637397
4	97	48	193.77774498193
4	98	48.5	196.67387435597
4	181	49	200.19107397192
4	182	49.5	203.72778743366
4	183	50	207.26647331018
4	184	50.5	210.79940940742
4	350	51	214.33261358016
4	430	51.5	217.86818029277
4	431	52	221.40024221234
4	432	52.5	224.93759651517
4	433	53	228.4735406317
4	434	53.5	232.01025300391
4	435	54	235.5882561797
4	436	54.5	239.87695087795
4	437	55	244.16687112593
4	438	55.5	248.46016390785
4	439	56	252.75870260666
4	440	56.5	257.05186138733
4	441	57	261.35513759439
4	442	57.5	265.64738122816
4	443	58	269.9436453149
4	444	58.5	274.23756451625
4	445	59	278.52956969908
4	446	59.5	282.82938435557
4	447	60	287.12722960976
4	448	60.5	291.42781023402
4	449	61	295.66003877192
4	450	61.5	299.59344093536
4	451	62	303.53082128626
4	452	62.5	307.46605655144
4	453	63	311.39996498288
4	454	63.5	315.34040090628
4	455	64	319.27257643803
4	456	64.5	323.20724542509
4	457	65	327.14609402395
4	458	65.5	331.08839822107
4	459	66	335.02932583459
4	460	66.5	338.97178067884
4	461	67	342.91035109595
4	462	67.5	346.84438368573
4	463	68	350.78055117372
4	464	68.5	354.71536925121
4	465	69	358.64867783256
4	466	69.5	362.36900405621
4	467	70	365.25437051244
4	468	70.5	368.09528447106
4	469	71	370.93264405918
4	470	71.5	373.77346710279
4	471	72	376.61451679771
4	472	72.5	379.45626523183
4	473	73	382.31811501482
4	474	73.5	385.22572085948
4	475	74	388.12859525275
4	476	74.5	391.0330289033
4	477	75	393.93720605224
4	478	75.5	396.83672892116
4	479	76	399.73664336978
4	480	76.5	402.63857411477
4	481	77	405.53953959781
4	482	77.5	408.44239268859
4	483	78	411.31388247979
4	484	78.5	413.87904759729
4	485	79	416.44662422128
4	486	79.5	419.01498787128
4	487	80	421.58601920749
4	488	80.5	424.14927800675
4	489	81	426.71107895928
4	490	81.5	429.27798181539
4	491	82	431.85273255326
4	492	82.5	434.42591446557
4	493	83	436.98915796517
4	494	83.5	439.56096183648
4	495	84	442.13536795322
4	496	84.5	444.70284084335
4	497	85	447.2735916425
4	498	85.5	449.84630617965
4	499	86	452.41456722678
4	500	86.5	454.96546912193
4	501	87	457.23346867808
4	502	87.5	459.13970108842
4	503	88	460.68416635308
4	504	88.5	461.8704556264
4	505	89	463.04057686415
4	506	89.5	464.38582212175
4	507	90	465.87636700878
4	508	90.5	467.52315292042
4	509	91	469.35439355229
4	510	91.5	471.38329231215
4	511	92	473.56536231539
4	512	92.5	475.89645045588
4	513	93	478.37164703547
4	514	93.5	480.96900524956
4	515	94	483.57290441601
4	516	94.5	486.17500823992
4	517	95	488.7767500534
4	518	95.5	491.38573053433
4	519	96	493.98852019408
4	520	96.5	496.59493001678
4	521	97	499.19498920976
4	522	97.5	503.87098802021
4	523	98	510.78796516941
4	524	98.5	517.67428889312
4	525	99	524.74739618099
4	526	99.5	532.0787677021
4	527	100	539.47171983786
4	528	100.5	546.87414557685
4	529	101	554.2698460276
4	530	101.5	561.65758864011
4	531	102	569.06169613649
4	532	102.5	576.44648235722
4	533	103	583.82170377998
4	534	103.5	590.99384639901
4	535	104	598.15700204647
4	536	104.5	605.32897281321
4	537	105	612.94757107459
4	538	105.5	620.78178411338
4	539	106	628.61568430858
4	540	106.5	636.45457377459
4	541	107	644.30650172743
4	542	107.5	652.13204461872
4	543	108	659.97488130257
4	544	108.5	667.83212041226
4	545	109	675.67777450662
4	546	109.5	683.52451256302
4	547	110	691.36591856414
4	548	110.5	699.20550484199
4	549	111	707.05289203359
4	550	111.5	714.87390746258
4	551	112	722.72855684569
4	552	112.5	730.56971380941
4	553	113	738.42281657306
4	554	113.5	746.27504105133
4	555	114	754.12240967713
4	556	114.5	761.98492623691
5	2	0.5	2497.1688996973
5	3	1	2496.3316489356
5	4	1.5	2494.9546389403
5	5	2	2493.0872100228
5	6	2.5	2490.7697802708
5	7	3	2487.9686525557
5	8	3.5	2484.7319310447
5	9	4	2480.9973027781
5	10	4.5	2476.7781916922
5	11	5	2472.0094869528
5	12	5.5	2466.7864948306
5	13	6	2461.0945128687
5	14	6.5	2454.9496297827
5	15	7	2448.3144770721
5	16	7.5	2441.1909222081
5	17	8	2433.5380245307
5	18	8.5	2425.5499333367
5	19	9	2417.5871251784
5	20	9.5	2409.6034747697
5	21	10	2401.6197705222
5	22	10.5	2393.6301635792
5	23	11	2385.6552858138
5	24	11.5	2377.6960107926
5	25	12	2369.7178466134
5	26	12.5	2361.7477148054
5	27	13	2353.7743123379
5	28	13.5	2345.7890393818
5	29	14	2337.8170907153
5	30	14.5	2329.834639146
5	31	15	2321.8400533656
5	32	15.5	2313.9513235185
5	33	16	2306.358641657
5	34	16.5	2298.7555464059
5	35	17	2291.1469260082
5	36	17.5	2283.5516180908
5	37	18	2275.9583024252
5	38	18.5	2268.3741610982
5	39	19	2260.7693834985
5	40	19.5	2253.1712959325
5	41	20	2245.5933316341
5	42	20.5	2237.9979581023
5	43	21	2230.4152072575
5	44	21.5	2222.814046802
5	45	22	2215.2080986015
5	46	22.5	2207.6045073243
5	47	23	2200.0202360004
5	48	23.5	2192.4151683394
5	49	24	2184.8062556228
5	50	24.5	2177.1970596397
5	51	25	2169.5970539479
5	52	25.5	2161.9935258832
5	53	26	2154.399824515
5	54	26.5	2146.8016983224
5	55	27	2138.8746753475
5	56	27.5	2130.9304732559
5	57	28	2122.9669797411
5	58	28.5	2115.019389079
5	59	29	2107.0643379204
5	60	29.5	2099.1139586596
5	61	30	2091.1452923995
5	62	30.5	2083.1832500445
5	63	31	2075.2387954444
5	64	31.5	2067.2838847786
5	65	32	2059.3309749616
5	66	32.5	2051.3851734512
5	67	33	2043.4219783731
5	68	33.5	2035.4573568702
5	69	34	2027.4610729283
5	70	34.5	2019.4810722796
5	71	35	2011.4843132757
5	72	35.5	2003.4934798256
5	73	36	1995.4856563201
5	74	36.5	1987.4991249219
5	75	37	1979.6536396155
5	76	37.5	1971.6674700528
5	77	38	1963.6720048534
5	78	38.5	1955.6821985766
5	79	39	1947.6910648718
5	80	39.5	1939.6958046798
5	81	40	1931.7010791581
5	82	40.5	1923.7058081245
5	83	41	1915.7082134867
5	84	41.5	1907.7120754188
5	85	42	1899.7118648142
5	86	42.5	1891.7204924747
5	87	43	1883.7359081525
5	88	43.5	1875.7509871386
5	89	44	1867.7747057695
5	90	44.5	1859.9732490843
5	91	45	1852.3763415627
5	92	45.5	1844.7878674828
5	93	46	1837.1926519489
5	94	46.5	1829.6006176481
5	95	47	1822.0174402529
5	96	47.5	1814.4555595871
5	97	48	1806.8957581716
5	98	48.5	1799.471004121
5	181	49	1792.3053684356
5	182	49.5	1785.131542041
5	183	50	1777.9537148234
5	184	50.5	1770.7875503879
5	350	51	1763.6208421923
5	430	51.5	1756.4493418494
5	431	52	1749.2849505851
5	432	52.5	1742.1098243156
5	433	53	1734.9375584517
5	434	53.5	1727.7637342662
5	435	54	1720.6248370688
5	436	54.5	1713.8965561865
5	437	55	1707.166352611
5	438	55.5	1700.4308580654
5	439	56	1693.6871335097
5	440	56.5	1686.9518491905
5	441	57	1680.2006922364
5	442	57.5	1673.4668436376
5	443	58	1666.7266875869
5	444	58.5	1659.9902102891
5	445	59	1653.2567357821
5	446	59.5	1646.511009451
5	447	60	1639.7683727993
5	448	60.5	1633.0214447873
5	449	61	1626.2429542998
5	450	61.5	1619.292198956
5	451	62	1612.3344137166
5	452	62.5	1605.3787845438
5	453	63	1598.4238969414
5	454	63.5	1591.4574691672
5	455	64	1584.5056452155
5	456	64.5	1577.5494130002
5	457	65	1570.5857915115
5	458	65.5	1563.6160607543
5	459	66	1556.648763706
5	460	66.5	1549.6787666157
5	461	67	1542.7156369323
5	462	67.5	1535.7605298255
5	463	68	1528.8016483616
5	464	68.5	1521.8451525643
5	465	69	1514.8913254561
5	466	69.5	1507.8183834413
5	467	70	1500.3619085737
5	468	70.5	1492.8893472515
5	469	71	1485.4261351209
5	470	71.5	1477.9538129363
5	471	72	1470.4808945814
5	472	72.5	1463.006138307
5	473	73	1455.5258132825
5	474	73.5	1448.0641734777
5	475	74	1440.6146757547
5	476	74.5	1433.1611765902
5	477	75	1425.7083356725
5	478	75.5	1418.2674387945
5	479	76	1410.8255370259
5	480	76.5	1403.378460939
5	481	77	1395.9338619541
5	482	77.5	1388.4844188988
5	483	78	1381.0295603536
5	484	78.5	1373.4624798596
5	485	79	1365.8882855698
5	486	79.5	1358.311769601
5	487	80	1350.7351713758
5	488	80.5	1343.1690609725
5	489	81	1335.6035017204
5	490	81.5	1328.0418283259
5	491	82	1320.4552476536
5	492	82.5	1312.873289573
5	493	83	1305.3206153251
5	494	83.5	1297.7453564825
5	495	84	1290.1640345324
5	496	84.5	1282.603276195
5	497	85	1275.0336746685
5	498	85.5	1267.4582908954
5	499	86	1259.8960204693
5	500	86.5	1252.384864239
5	501	87	1245.7067167861
5	502	87.5	1240.093796324
5	503	88	1235.5461028526
5	504	88.5	1232.0640323134
5	505	89	1228.6392872278
5	506	89.5	1224.6298702713
5	507	90	1220.1121715521
5	508	90.5	1215.1144872913
5	509	91	1209.6670731781
5	510	91.5	1203.80311397
5	511	92	1197.4682601057
5	512	92.5	1190.700785785
5	513	93	1183.5149445459
5	514	93.5	1175.9744510269
5	515	94	1168.4149682093
5	516	94.5	1160.8606975218
5	517	95	1153.307477802
5	518	95.5	1145.7332432196
5	519	96	1138.1769814547
5	520	96.5	1130.6102098515
5	521	97	1123.0618750136
5	522	97.5	1118.2538863569
5	523	98	1122.2492650589
5	524	98.5	1126.3150561899
5	525	99	1130.0483494019
5	526	99.5	1133.1950568007
5	527	100	1136.2469244581
5	528	100.5	1139.3027028916
5	529	101	1142.355705074
5	530	101.5	1145.4054222004
5	531	102	1148.4618948763
5	532	102.5	1151.5103915809
5	533	103	1154.5549398633
5	534	103.5	1158.0686001722
5	535	104	1161.6146777757
5	536	104.5	1165.1483644247
5	537	105	1167.4954979662
5	538	105.5	1169.0617811866
5	539	106	1170.6280018613
5	540	106.5	1172.1952200346
5	541	107	1173.7647811351
5	542	107.5	1175.3287536558
5	543	108	1176.8961824244
5	544	108.5	1178.466489587
5	545	109	1180.0344814286
5	546	109.5	1181.603188551
5	547	110	1183.1730012754
5	548	110.5	1184.7424497008
5	549	111	1186.3134598313
5	550	111.5	1187.8696301812
5	551	112	1189.4044381715
5	552	112.5	1190.8968605548
5	553	113	1192.3915566048
5	554	113.5	1193.8860854888
5	555	114	1195.3796901498
5	556	114.5	1196.8761779452
6	2	0.5	1630.0247913966
6	3	1	1630.0082108838
6	4	1.5	1629.9812774651
6	5	2	1629.8417228467
6	6	2.5	1629.598968075
6	7	3	1629.3054750046
6	8	3.5	1628.9658557308
6	9	4	1628.5728588598
6	10	4.5	1628.1282675097
6	11	5	1627.6355270261
6	12	5.5	1627.0910144426
6	13	6	1626.4940830157
6	14	6.5	1625.8345458684
6	15	7	1625.0961785339
6	16	7.5	1624.322276724
6	17	8	1623.6989221299
6	18	8.5	1623.0772683261
6	19	9	1622.4546982928
6	20	9.5	1621.8158716178
6	21	10	1621.1479699811
6	22	10.5	1620.4805658566
6	23	11	1619.8128705663
6	24	11.5	1619.1453593093
6	25	12	1618.477649382
6	26	12.5	1617.8102521775
6	27	13	1617.1432332682
6	28	13.5	1616.4748463017
6	29	14	1615.5620805648
6	30	14.5	1614.8538707139
6	31	15	1614.1444828574
6	32	15.5	1613.4359561502
6	33	16	1612.7275783645
6	34	16.5	1612.0191638161
6	35	17	1611.3111493622
6	36	17.5	1610.6013700862
6	37	18	1609.9844655549
6	38	18.5	1609.3916057335
6	39	19	1608.7978704775
6	40	19.5	1608.2024692262
6	41	20	1607.5996517522
6	42	20.5	1606.9399328879
6	43	21	1606.2808350986
6	44	21.5	1605.6199371605
6	45	22	1604.9601680936
6	46	22.5	1604.3006430242
6	47	23	1603.6409381006
6	48	23.5	1602.9812482408
6	49	24	1602.3200556216
6	50	24.5	1601.6594453757
6	51	25	1600.9992167008
6	52	25.5	1600.3514186537
6	53	26	1599.7119629709
6	54	26.5	1599.074586045
6	55	27	1598.4685066192
6	56	27.5	1598.2871992715
6	57	28	1600.1327301846
6	58	28.5	1604.5245775143
6	59	29	1608.8714928426
6	60	29.5	1613.2086702916
6	61	30	1617.5543518139
6	62	30.5	1621.8981999634
6	63	31	1626.2505997774
6	64	31.5	1630.5994169144
6	65	32	1634.9475009422
6	66	32.5	1639.3068751593
6	67	33	1643.6594599589
6	68	33.5	1648.0111841358
6	69	34	1652.3707087236
6	70	34.5	1656.7378211758
6	71	35	1661.1153184619
6	72	35.5	1665.4786211952
6	73	36	1669.8497660584
6	74	36.5	1674.2195324327
6	75	37	1678.5747012508
6	76	37.5	1682.9394769202
6	77	38	1687.2844451248
6	78	38.5	1691.6535222295
6	79	39	1696.007967332
6	80	39.5	1700.3603826565
6	81	40	1704.7219716228
6	82	40.5	1709.0685501357
6	83	41	1713.421631285
6	84	41.5	1717.772810848
6	85	42	1722.1196195115
6	86	42.5	1726.4788973695
6	87	43	1730.8314410215
6	88	43.5	1735.1881622528
6	89	44	1739.5504760824
6	90	44.5	1743.9007958359
6	91	45	1748.2549870936
6	92	45.5	1752.6101947357
6	93	46	1756.9728058497
6	94	46.5	1761.3346374495
6	95	47	1765.6900989362
6	96	47.5	1770.0566241341
6	97	48	1774.41547178
6	98	48.5	1778.7760363325
6	181	49	1783.1222143166
6	182	49.5	1787.4824368078
6	183	50	1791.8482998944
6	184	50.5	1796.1887652293
6	350	51	1800.5258676313
6	430	51.5	1804.8860753857
6	431	52	1809.2343602234
6	432	52.5	1813.5937689443
6	433	53	1817.9450976856
6	434	53.5	1822.3073966277
6	435	54	1826.6539629906
6	436	54.5	1830.9981052334
6	437	55	1835.3537803019
6	438	55.5	1839.7118837045
6	439	56	1844.065977226
6	440	56.5	1848.4172813307
6	441	57	1852.7685238142
6	442	57.5	1857.1245474649
6	443	58	1861.4775959136
6	444	58.5	1865.8314805964
6	445	59	1870.1833637168
6	446	59.5	1874.4006811352
6	447	60	1877.8581749013
6	448	60.5	1881.7474716639
6	449	61	1886.0634982631
6	450	61.5	1890.440647183
6	451	62	1894.7923598661
6	452	62.5	1899.1637865725
6	453	63	1903.5218174245
6	454	63.5	1907.8794477829
6	455	64	1912.2461129271
6	456	64.5	1916.6044484593
6	457	65	1920.9571130626
6	458	65.5	1925.1996808833
6	459	66	1929.5593684167
6	460	66.5	1933.9107909766
6	461	67	1938.2639543132
6	462	67.5	1942.6266056013
6	463	68	1946.9707487051
6	464	68.5	1951.3157593348
6	465	69	1955.6733094592
6	466	69.5	1960.0258806145
6	467	70	1963.988371341
6	468	70.5	1967.271371744
6	469	71	1971.1146937864
6	470	71.5	1975.4264215742
6	471	72	1979.7885677466
6	472	72.5	1984.1448536554
6	473	73	1988.5080524788
6	474	73.5	1992.8635246024
6	475	74	1997.2101879908
6	476	74.5	2001.5567318412
6	477	75	2005.9198299769
6	478	75.5	2010.2616626488
6	479	76	2014.6048769309
6	480	76.5	2018.9551789366
6	481	77	2023.3116549015
6	482	77.5	2027.661583852
6	483	78	2032.0213878695
6	484	78.5	2036.3931111828
6	485	79	2040.7503939257
6	486	79.5	2045.0976084373
6	487	80	2049.4575449938
6	488	80.5	2053.7955195272
6	489	81	2058.1582450452
6	490	81.5	2062.056940352
6	491	82	2061.7801062294
6	492	82.5	2061.4370895101
6	493	83	2061.0931859596
6	494	83.5	2060.7487941309
6	495	84	2060.4052429899
6	496	84.5	2060.0634153135
6	497	85	2059.7201837512
6	498	85.5	2059.3782502438
6	499	86	2059.0360925806
6	500	86.5	2058.6926551139
6	501	87	2058.3495369698
6	502	87.5	2058.0073966039
6	503	88	2057.6640050008
6	504	88.5	2057.3217827502
6	505	89	2056.9781080806
6	506	89.5	2056.6349150295
6	507	90	2056.2933472292
6	508	90.5	2055.9508191892
6	509	91	2055.6081224538
6	510	91.5	2055.2638705531
6	511	92	2054.9205035403
6	512	92.5	2054.5781196121
6	513	93	2054.234769439
6	514	93.5	2053.8922471347
6	515	94	2053.5492995267
6	516	94.5	2053.2068637755
6	517	95	2052.8636471422
6	518	95.5	2052.5207435775
6	519	96	2052.1785843546
6	520	96.5	2051.8355037851
6	521	97	2051.4923401346
6	522	97.5	2051.1488415605
6	523	98	2050.8060174736
6	524	98.5	2050.4616009442
6	525	99	2050.1196304383
6	526	99.5	2049.7748191546
6	527	100	2049.4330479936
6	528	100.5	2049.090636323
6	529	101	2048.7477756736
6	530	101.5	2048.8186060826
6	531	102	2048.9118752652
6	532	102.5	2049.005229435
6	533	103	2049.098863462
6	534	103.5	2049.1922907309
6	535	104	2049.2858821505
6	536	104.5	2049.3795851922
6	537	105	2049.4731499439
6	538	105.5	2049.5670584716
6	539	106	2049.6607877562
6	540	106.5	2049.7543175638
6	541	107	2049.8480386043
6	542	107.5	2049.9415887869
6	543	108	2050.2876930278
6	544	108.5	2050.7567154121
6	545	109	2051.1338090632
6	546	109.5	2051.5152316118
6	547	110	2049.4481940157
6	548	110.5	2045.1011493335
6	549	111	2040.7511324832
6	550	111.5	2036.405567345
6	551	112	2032.0626127307
6	552	112.5	2027.6977958553
6	553	113	2023.3434051761
6	554	113.5	2018.9830571474
6	555	114	2014.6257599526
6	556	114.5	2010.2751989563
7	2	0.5	360.29248770513
7	3	1	361.13602129091
7	4	1.5	362.5062589664
7	5	2	364.3352372963
7	6	2.5	366.71067855973
7	7	3	369.58261201344
7	8	3.5	372.90590667538
7	9	4	376.75151999667
7	10	4.5	381.10200353526
7	11	5	385.9236433683
7	12	5.5	391.25189150218
7	13	6	397.09307655133
7	14	6.5	403.44417801127
7	15	7	410.23715748917
7	16	7.5	417.44994158298
7	17	8	424.71971334238
7	18	8.5	431.96964991186
7	19	9	439.23027185909
7	20	9.5	446.49580528866
7	21	10	453.75826318469
7	22	10.5	461.01531136036
7	23	11	468.27552554011
7	24	11.5	475.5337386271
7	25	12	482.7941119615
7	26	12.5	490.05108489189
7	27	13	497.30394441355
7	28	13.5	504.57167956606
7	29	14	511.7895232439
7	30	14.5	519.03953384049
7	31	15	526.30160379037
7	32	15.5	533.55485807359
7	33	16	540.80658783298
7	34	16.5	548.05869393703
7	35	17	555.30670423526
7	36	17.5	562.57278118469
7	37	18	569.83576083463
7	38	18.5	577.08640474733
7	39	19	584.34775517788
7	40	19.5	591.61120824516
7	41	20	598.88374377042
7	42	20.5	606.13970067352
7	43	21	613.38882664684
7	44	21.5	620.65775166359
7	45	22	627.91426072363
7	46	22.5	635.16808616463
7	47	23	642.42388973851
7	48	23.5	649.67952763475
7	49	24	656.95169372018
7	50	24.5	664.21745453775
7	51	25	671.47901862208
7	52	25.5	678.73389636446
7	53	26	685.99258249253
7	54	26.5	693.2482074732
7	55	27	700.15127387363
7	56	27.5	706.0995322438
7	57	28	711.40140250884
7	58	28.5	713.50090264063
7	59	29	713.69153064582
7	60	29.5	713.86569899227
7	61	30	714.04020883795
7	62	30.5	714.21464506071
7	63	31	714.38942469377
7	64	31.5	714.56406045612
7	65	32	714.73866677936
7	66	32.5	714.91372648347
7	67	33	715.08851354383
7	68	33.5	715.26326604467
7	69	34	715.43833178747
7	70	34.5	715.61370223667
7	71	35	715.78948970977
7	72	35.5	715.96470717154
7	73	36	716.1402395498
7	74	36.5	716.31571657304
7	75	37	716.49060740042
7	76	37.5	716.66588401143
7	77	38	716.84036521148
7	78	38.5	717.01581455581
7	79	39	717.19067632034
7	80	39.5	717.36545657553
7	81	40	717.54060521815
7	82	40.5	717.71515108366
7	83	41	717.88995807711
7	84	41.5	718.0646887077
7	85	42	718.23924381565
7	86	42.5	718.41429965012
7	87	43	718.58908505924
7	88	43.5	718.76403822657
7	89	44	718.93921597674
7	90	44.5	719.15372188389
7	91	45	719.36859831586
7	92	45.5	719.58352490515
7	93	46	719.79881685134
7	94	46.5	720.01407032926
7	95	47	720.22900944576
7	96	47.5	720.44449454919
7	97	48	720.65960077103
7	98	48.5	720.87479172088
7	181	49	721.08927270304
7	182	49.5	721.30444677174
7	183	50	721.51989920065
7	184	50.5	721.73409826774
7	350	51	721.94818563107
7	430	51.5	722.16349143907
7	431	52	722.37820849568
7	432	52.5	722.59347484726
7	433	53	722.80834221188
7	434	53.5	723.0237512812
7	435	54	723.23838348035
7	436	54.5	723.45289597753
7	437	55	723.66797796264
7	438	55.5	723.8831798574
7	439	56	724.09818374552
7	440	56.5	724.31304989383
7	441	57	724.52791299857
7	442	57.5	724.74301219638
7	443	58	724.95796447899
7	444	58.5	725.17295805458
7	445	59	725.38785279449
7	446	59.5	725.59610271826
7	447	60	725.76683276799
7	448	60.5	725.94830236491
7	449	61	726.10342382826
7	450	61.5	726.26039742585
7	451	62	726.34416091442
7	452	62.5	726.42830386665
7	453	63	726.51218897011
7	454	63.5	726.59606636502
7	455	64	726.68011766486
7	456	64.5	726.76400863286
7	457	65	726.84779044427
7	458	65.5	726.95245877374
7	459	66	727.08402530476
7	460	66.5	727.2153424155
7	461	67	727.34671206027
7	462	67.5	727.47836803179
7	463	68	727.60946546309
7	464	68.5	727.74058907479
7	465	69	727.87209110335
7	466	69.5	728.00344287697
7	467	70	728.10784678347
7	468	70.5	728.18306377344
7	469	71	728.29019937292
7	470	71.5	728.4348275587
7	471	72	728.59292192478
7	472	72.5	728.79428598657
7	473	73	728.9959695898
7	474	73.5	729.19729603548
7	475	74	729.39821530785
7	476	74.5	729.59912905563
7	477	75	729.8008080041
7	478	75.5	730.00150398258
7	479	76	730.20226382464
7	480	76.5	730.40335128829
7	481	77	730.60472413525
7	482	77.5	730.80579435453
7	483	78	731.00732103642
7	484	78.5	731.20939867385
7	485	79	731.41080881283
7	486	79.5	731.6117535606
7	487	80	731.81328636967
7	488	80.5	732.01380401012
7	489	81	732.21560846176
7	490	81.5	733.33399402536
7	491	82	737.67584560253
7	492	82.5	742.02184925787
7	493	83	746.37908902019
7	494	83.5	750.7425152408
7	495	84	755.09528999124
7	496	84.5	759.42622853909
7	497	85	763.77495424543
7	498	85.5	768.10723366402
7	499	86	772.44235312659
7	500	86.5	776.79368763044
7	501	87	781.14097633492
7	502	87.5	785.47587664053
7	503	88	789.82663005404
7	504	88.5	794.16256783623
7	505	89	798.51690768916
7	506	89.5	802.86514545977
7	507	90	807.19279138837
7	508	90.5	811.532603506
7	509	91	815.87455298379
7	510	91.5	820.23620632384
7	511	92	824.58664818015
7	512	92.5	828.92463440914
7	513	93	833.27486290783
7	514	93.5	837.61460235156
7	515	94	841.95973037183
7	516	94.5	846.29837319534
7	517	95	850.64690975193
7	518	95.5	854.99147974607
7	519	96	859.32661896851
7	520	96.5	863.6734316051
7	521	97	868.02129687276
7	522	97.5	872.37340560369
7	523	98	876.71696861833
7	524	98.5	881.08070779592
7	525	99	885.41345598362
7	526	99.5	889.78219667636
7	527	100	894.11241917685
7	528	100.5	898.45075689815
7	529	101	902.79478315637
7	530	101.5	907.14518479817
7	531	102	911.48746698163
7	532	102.5	915.83370587695
7	533	103	920.19297391921
7	534	103.5	924.54261604231
7	535	104	928.89990044385
7	536	104.5	933.26238156855
7	537	105	937.61842440348
7	538	105.5	941.99047223013
7	539	106	946.35417513177
7	540	106.5	950.70859109145
7	541	107	955.07191017922
7	542	107.5	959.42727472726
7	543	108	963.79248627182
7	544	108.5	968.03528744634
7	545	109	971.44649646059
7	546	109.5	975.07446854841
7	547	110	978.1064399248
7	548	110.5	978.37199029233
7	549	111	978.52152034454
7	550	111.5	978.67089737114
7	551	112	978.82018466294
7	552	112.5	978.97022346035
7	553	113	979.11990386061
7	554	113.5	979.26978904381
7	555	114	979.41956935544
7	556	114.5	979.56911811233
8	3	1	0.96315724250003
8	4	1.5	1.4163082134939
8	5	2	1.8730117260368
8	6	2.5	2.3571391038766
8	7	3	2.8579845126981
8	8	3.5	3.226170594006
8	9	4	3.6683751018142
8	10	4.5	4.096395278115
8	11	5	4.5673459860759
8	12	5.5	5.0041966364236
8	13	6	5.4528541425599
8	14	6.5	5.8326756184112
8	15	7	6.3185249040166
8	16	7.5	6.8164614663955
8	17	8	7.2483342648793
8	18	8.5	7.6306189449347
8	19	9	8.0300661469979
8	20	9.5	8.4971491859045
8	21	10	8.9360353771627
8	22	10.5	9.3978944510204
8	23	11	9.8634379853105
8	24	11.5	10.317759716001
8	25	12	10.714327577011
8	26	12.5	11.151482744485
8	27	13	11.636657540172
8	28	13.5	12.128458942918
8	29	14	12.574270750012
8	30	14.5	13.063242460064
8	31	15	13.48613080303
8	32	15.5	13.890868600824
8	33	16	14.428135147968
8	34	16.5	14.888480121305
8	35	17	15.285900480401
8	36	17.5	15.704661329704
8	37	18	16.182874826592
8	38	18.5	16.576163220711
8	39	19	17.04590348
8	40	19.5	17.511949481893
8	41	20	17.948874973443
8	42	20.5	18.398306984392
8	43	21	18.875087373511
8	44	21.5	19.375399535641
8	45	22	19.816389375537
8	46	22.5	20.27372128587
8	47	23	20.748558687948
8	48	23.5	21.214605076791
8	49	24	21.723559591782
8	50	24.5	22.158030788045
8	51	25	22.180865816828
8	52	25.5	22.164680755404
8	53	26	22.164840675383
8	54	26.5	22.218768838248
8	55	27	22.171807797495
8	56	27.5	22.215426433589
8	57	28	22.199853998441
8	58	28.5	22.167198591596
8	59	29	22.16194917758
8	60	29.5	22.206758969524
8	61	30	22.178201122959
8	62	30.5	22.214963697381
8	63	31	22.198859407622
8	64	31.5	22.2038517011
8	65	32	22.186262325868
8	66	32.5	22.202624620232
8	67	33	22.219863656233
8	68	33.5	22.167788052191
8	69	34	22.202800164078
8	70	34.5	22.217187748034
8	71	35	22.195973929828
8	72	35.5	22.211866106712
8	73	36	22.170279956269
8	74	36.5	22.163523615594
8	75	37	22.168545345282
8	76	37.5	22.167798402975
8	77	38	22.186826498653
8	78	38.5	22.193691120511
8	79	39	22.185229519703
8	80	39.5	22.177593529359
8	81	40	22.19146439536
8	82	40.5	22.162687323107
8	83	41	22.197801454882
8	84	41.5	22.217959166225
8	85	42	22.204708646093
8	86	42.5	22.200998968482
8	87	43	22.165243705269
8	88	43.5	22.2156477495
8	89	44	22.215933352709
8	90	44.5	22.165281229946
8	91	45	22.195793533404
8	92	45.5	22.168840515916
8	93	46	22.177717501842
8	94	46.5	22.185965690343
8	95	47	22.214475051789
8	96	47.5	22.215324746016
8	97	48	22.167504116255
8	98	48.5	22.193515154943
8	181	49	22.177530833464
8	182	49.5	22.169618578316
8	183	50	22.206625824641
8	184	50.5	21.580384363871
8	350	51	19.616930420607
8	430	51.5	17.616930420607
8	431	52	15.616930420607
8	432	52.5	13.61776835161
8	433	53	11.61776835161
8	434	53.5	9.6177683516095
8	435	54	7.621709618162
8	436	54.5	6.1442299241564
8	437	55	6.7442299241564
8	438	55.5	7.255018803835
8	439	56	7.7594606428632
8	440	56.5	8.2108324556184
8	441	57	8.7083027334084
8	442	57.5	9.1773656754932
8	443	58	9.6408373741704
8	444	58.5	10.031210490148
8	445	59	10.484874080326
8	446	59.5	10.936389134316
8	447	60	11.464534922367
8	448	60.5	11.840224058138
8	449	61	12.359627453148
8	450	61.5	12.792568083814
8	451	62	13.280919353938
8	452	62.5	13.686657109763
8	453	63	14.05839870647
8	454	63.5	14.460127212111
8	455	64	14.901902201068
8	456	64.5	15.351649767076
8	457	65	15.798307207603
8	458	65.5	16.258607918065
8	459	66	16.628750642347
8	460	66.5	16.650571294082
8	461	67	16.616772580417
8	462	67.5	16.650385994595
8	463	68	16.654690879406
8	464	68.5	16.664125773064
8	465	69	16.651049871976
8	466	69.5	16.62023888641
8	467	70	16.626875846363
8	468	70.5	16.616585292728
8	469	71	16.641551270909
8	470	71.5	16.641791198403
8	471	72	16.653362404625
8	472	72.5	16.635026598955
8	473	73	16.638479435425
8	474	73.5	16.632992752376
8	475	74	16.667005961989
8	476	74.5	16.644645532873
8	477	75	16.660747380229
8	478	75.5	16.633879308454
8	479	76	16.635898684096
8	480	76.5	16.648442312512
8	481	77	16.626150358738
8	482	77.5	16.61202521604
8	483	78	16.613346314928
8	484	78.5	16.642588211489
8	485	79	16.615855952976
8	486	79.5	16.655659237397
8	487	80	16.631936747716
8	488	80.5	16.614780669156
8	489	81	16.646658442868
8	490	81.5	16.647091515311
8	491	82	16.665983703821
8	492	82.5	16.666648380556
8	493	83	16.654696594453
8	494	83.5	16.668298711353
8	495	84	16.657574502258
8	496	84.5	15.268735256246
8	497	85	15.043902140544
8	498	85.5	13.871743001975
8	499	86	13.844590774127
8	500	86.5	13.852706948491
8	501	87	13.83007688791
8	502	87.5	13.879861591388
8	503	88	13.855097279227
8	504	88.5	13.867155090538
8	505	89	13.837531580497
8	506	89.5	13.848498643404
8	507	90	13.882349604056
8	508	90.5	13.713017084247
8	509	91	11.755890308297
8	510	91.5	9.7558903082975
8	511	92	7.7558903082975
8	512	92.5	5.7583683660815
8	513	93	6.3583683660815
8	514	93.5	6.8463033683321
8	515	94	7.2485037747308
8	516	94.5	7.7184753818394
8	517	95	8.1805615076798
8	518	95.5	8.5494647345229
8	519	96	9.0345039918882
8	520	96.5	9.5084091952678
8	521	97	9.9768066636103
8	522	97.5	10.416117332774
8	523	98	10.846483959151
8	524	98.5	11.331785553894
8	525	99	11.761553486116
8	526	99.5	12.162106962018
8	527	100	12.643488149401
8	528	100.5	13.119363308107
8	529	101	13.589265983324
8	530	101.5	13.83293677845
8	531	102	13.888926274027
8	532	102.5	13.875961573399
8	533	103	13.838223987445
8	534	103.5	13.864674470359
8	535	104	13.843729357249
8	536	104.5	13.866080609886
8	537	105	13.841296141539
8	538	105.5	13.854572706171
8	539	106	13.861057595084
8	540	106.5	13.871494059758
8	541	107	13.885997938584
8	542	107.5	13.841112879748
8	543	108	13.869082545242
8	544	108.5	13.863716630666
8	545	109	13.847652893951
8	546	109.5	13.865288594272
8	547	110	13.883274842841
8	548	110.5	13.87470977392
8	549	111	13.860760935643
8	550	111.5	13.863662725277
8	551	112	13.887686436237
8	552	112.5	13.872817012779
8	553	113	13.842188464967
8	554	113.5	13.849433357064
8	555	114	13.843134842045
8	556	114.5	13.83805669494
9	3	1	2.0116060111359
9	4	1.5	3.0081261322249
9	5	2	3.9596735773885
9	6	2.5	4.9147222280081
9	7	3	5.889326381562
9	8	3.5	6.8788821249406
9	9	4	7.7938837797867
9	10	4.5	8.7023372510245
9	11	5	8.6754488682753
9	12	5.5	8.6928926480847
9	13	6	8.6739304756915
9	14	6.5	8.6486439504597
9	15	7	8.6071240203461
9	16	7.5	8.6096484815405
9	17	8	8.6765494632844
9	18	8.5	8.691906216222
9	19	9	8.6895699835668
9	20	9.5	8.6917188767746
9	21	10	8.6876668885426
9	22	10.5	8.6548053989519
9	23	11	8.6498789012043
9	24	11.5	9.3105579491106
9	25	12	10.306217582808
9	26	12.5	11.226979594259
9	27	13	12.140981362973
9	28	13.5	13.117551298785
9	29	14	13.969481934591
9	30	14.5	13.8435789962
9	31	15	11.61471192603
9	32	15.5	10.5303115453
9	33	16	8.727996280003
9	34	16.5	8.6786673143745
9	35	17	8.6113086891018
9	36	17.5	8.6799250831228
9	37	18	8.7312646191504
9	38	18.5	8.6191957829014
9	39	19	8.6255628256739
9	40	19.5	8.640095662757
9	41	20	8.7224545112398
9	42	20.5	8.7102991879225
9	43	21	8.6680538501061
9	44	21.5	8.687159623318
9	45	22	8.6143776310661
9	46	22.5	8.701649005111
9	47	23	8.694289473822
9	48	23.5	8.6238870165713
9	49	24	8.6729226478452
9	50	24.5	8.6525806385588
9	51	25	8.6307179475512
9	52	25.5	8.6969431934116
9	53	26	8.6335482753773
9	54	26.5	6.8635875598246
9	55	27	7.4535875598246
9	56	27.5	8.6192236613829
9	57	28	9.7195325001443
9	58	28.5	10.723088909916
9	59	29	11.642868467171
9	60	29.5	12.546221441766
9	61	30	13.645800116907
9	62	30.5	14.559675122629
9	63	31	14.495002092735
9	64	31.5	14.541947132022
9	65	32	14.435276740821
9	66	32.5	14.540433851882
9	67	33	14.548035021111
9	68	33.5	14.47648254187
9	69	34	14.488430435123
9	70	34.5	14.498726023423
9	71	35	14.506795355849
9	72	35.5	14.456248789478
9	73	36	14.534164740203
9	74	36.5	14.453060064965
9	75	37	14.550677891778
9	76	37.5	14.437574530322
9	77	38	14.500435655181
9	78	38.5	14.486342127523
9	79	39	14.5276124709
9	80	39.5	14.533853154012
9	81	40	14.481712085273
9	82	40.5	14.444666899104
9	83	41	14.477096496198
9	84	41.5	14.433516102244
9	85	42	14.500294024718
9	86	42.5	14.460819787759
9	87	43	12.996012484405
9	88	43.5	10.757507540396
9	89	44	8.5075075403963
9	90	44.5	6.2575075403963
9	91	45	7.5575075403963
9	92	45.5	8.5096150686278
9	93	46	9.460639632406
9	94	46.5	10.345157276952
9	95	47	11.201046515362
9	96	47.5	12.154825661761
9	97	48	13.017918653771
9	98	48.5	14.03233964305
9	181	49	14.501747551862
9	182	49.5	14.491342554851
9	183	50	14.506633412178
9	184	50.5	14.548575382772
9	350	51	14.54822373191
9	430	51.5	14.527033428179
9	431	52	14.512090891599
9	432	52.5	14.554619557992
9	433	53	14.447408475936
9	434	53.5	14.53172453887
9	435	54	14.480762663406
9	436	54.5	14.438121919028
9	437	55	14.558232903694
9	438	55.5	14.542846894631
9	439	56	14.554609659483
9	440	56.5	14.477540882199
9	441	57	14.552038549333
9	442	57.5	14.437921243931
9	443	58	14.543844697994
9	444	58.5	14.561337858657
9	445	59	14.44387854241
9	446	59.5	14.43810947138
9	447	60	14.526182060141
9	448	60.5	14.466360179844
9	449	61	14.437450976564
9	450	61.5	14.505227556291
9	451	62	14.526362177435
9	452	62.5	14.55133236068
9	453	63	14.49503661455
9	454	63.5	14.529871659581
9	455	64	14.439649571012
9	456	64.5	14.483768474983
9	457	65	14.506621771868
9	458	65.5	14.494738701437
9	459	66	14.441553623079
9	460	66.5	14.514941137514
9	461	67	14.443122876046
9	462	67.5	14.512384618378
9	463	68	14.53218452505
9	464	68.5	14.500015057576
9	465	69	14.513352883699
9	466	69.5	14.535425908015
9	467	70	14.492530892446
9	468	70.5	14.489375022831
9	469	71	14.46081409977
9	470	71.5	14.521259556375
9	471	72	14.449552068493
9	472	72.5	14.556927578434
9	473	73	14.549219611652
9	474	73.5	14.520987667976
9	475	74	14.433452759012
9	476	74.5	14.503778542193
9	477	75	14.55948699579
9	478	75.5	14.555067569613
9	479	76	14.548701224426
9	480	76.5	14.475711396035
9	481	77	14.512918735511
9	482	77.5	14.480927313579
9	483	78	14.497250521359
9	484	78.5	14.448809500932
9	485	79	14.498420724286
9	486	79.5	14.469818532433
9	487	80	14.491440663193
9	488	80.5	14.55849653202
9	489	81	14.48788325227
9	490	81.5	14.497743324602
9	491	82	14.536177329325
9	492	82.5	14.436843053314
9	493	83	14.541605631953
9	494	83.5	14.501312886969
9	495	84	14.547443385638
9	496	84.5	14.537437022935
9	497	85	14.531854001392
9	498	85.5	14.518369469681
9	499	86	14.473639399578
9	500	86.5	14.470216451359
9	501	87	14.49523915013
9	502	87.5	14.473546095764
9	503	88	14.533213128689
9	504	88.5	14.458791967394
9	505	89	14.470618839715
9	506	89.5	14.466108705203
9	507	90	14.461235053932
9	508	90.5	14.460790763699
9	509	91	14.541786234594
9	510	91.5	14.469356786685
9	511	92	14.461300030848
9	512	92.5	14.475457256722
9	513	93	14.493053014408
9	514	93.5	14.539857172486
9	515	94	14.538181362838
9	516	94.5	14.432985000649
9	517	95	14.44327165947
9	518	95.5	14.496733579248
9	519	96	14.496679494084
9	520	96.5	14.458099357261
9	521	97	14.55919458809
9	522	97.5	14.449305741013
9	523	98	14.471173897571
9	524	98.5	14.488687246949
9	525	99	14.555047085058
9	526	99.5	14.509674064414
9	527	100	14.543265025426
9	528	100.5	14.500515971216
9	529	101	14.476752003684
9	530	101.5	14.553207657285
9	531	102	14.503347931485
9	532	102.5	14.436546382156
9	533	103	14.521860121569
9	534	103.5	14.533955061288
9	535	104	14.512516063332
9	536	104.5	14.522232632278
9	537	105	14.477135983265
9	538	105.5	14.449242116773
9	539	106	14.54056980943
9	540	106.5	14.491410574637
9	541	107	14.498996116961
9	542	107.5	14.549403010632
9	543	108	14.480796067788
9	544	108.5	14.500172733824
9	545	109	14.503807777978
9	546	109.5	14.436094413934
9	547	110	14.45586473341
9	548	110.5	14.450242680576
9	549	111	14.509709102934
9	550	111.5	14.535988210059
9	551	112	14.45423871502
9	552	112.5	14.505008260481
9	553	113	14.478625132951
9	554	113.5	14.500767504758
9	555	114	14.504411293968
9	556	114.5	14.450445948913
10	3	1	2.1311671961367
10	4	1.5	3.1435446060073
10	5	2	4.0758362758249
10	6	2.5	4.9786327199658
10	7	3	5.9862471878199
10	8	3.5	6.8543556765883
10	9	4	7.8430037378912
10	10	4.5	8.8951558063409
10	11	5	9.8639746389535
10	12	5.5	10.884495384309
10	13	6	11.750328246459
10	14	6.5	12.627083729126
10	15	7	13.680306829451
10	16	7.5	14.66311544073
10	17	8	15.631815495721
10	18	8.5	15.944889718909
10	19	9	15.933076143798
10	20	9.5	16.02704194391
10	21	10	16.012680860139
10	22	10.5	16.046975723119
10	23	11	15.991224413538
10	24	11.5	15.957330957596
10	25	12	16.006943297596
10	26	12.5	16.009157720807
10	27	13	15.938132288733
10	28	13.5	15.992241283309
10	29	14	16.031916167154
10	30	14.5	15.994183716753
10	31	15	16.050449797989
10	32	15.5	15.941528713664
10	33	16	16.035602408029
10	34	16.5	15.973466740693
10	35	17	16.029840288526
10	36	17.5	15.964652343749
10	37	18	16.008472060718
10	38	18.5	15.930056551905
10	39	19	16.034577265534
10	40	19.5	15.948862201169
10	41	20	15.927917716687
10	42	20.5	16.009976792937
10	43	21	15.924553301391
10	44	21.5	15.971704688843
10	45	22	15.946442086124
10	46	22.5	16.03932738042
10	47	23	15.927726235763
10	48	23.5	15.9891791369
10	49	24	15.975600421213
10	50	24.5	16.029597706406
10	51	25	15.938564928819
10	52	25.5	16.017461132803
10	53	26	15.986677580064
10	54	26.5	15.991367802329
10	55	27	15.941091452837
10	56	27.5	15.935278603801
10	57	28	15.940887910151
10	58	28.5	16.015791453997
10	59	29	16.044431088586
10	60	29.5	15.951873005662
10	61	30	16.049907877285
10	62	30.5	15.949109528975
10	63	31	15.976399861407
10	64	31.5	16.039754499081
10	65	32	15.938170450274
10	66	32.5	16.040572454352
10	67	33	15.990110049562
10	68	33.5	16.007202510792
10	69	34	16.044637274847
10	70	34.5	15.966868247155
10	71	35	15.996379570738
10	72	35.5	15.960602580668
10	73	36	15.972599685637
10	74	36.5	15.933823426839
10	75	37	15.944410204946
10	76	37.5	15.951852494351
10	77	38	16.025625474553
10	78	38.5	16.007644835604
10	79	39	15.980006347718
10	80	39.5	16.047505428088
10	81	40	16.038682358186
10	82	40.5	16.017372143357
10	83	41	15.98595333556
10	84	41.5	15.999757634413
10	85	42	15.967693241095
10	86	42.5	16.016159347687
10	87	43	15.95098133998
10	88	43.5	15.98331078985
10	89	44	15.949522169975
10	90	44.5	15.938722888315
10	91	45	15.994377072174
10	92	45.5	15.960719714193
10	93	46	16.036747667473
10	94	46.5	16.003411920378
10	95	47	15.926190744492
10	96	47.5	16.028492913561
10	97	48	15.954295847065
10	98	48.5	15.930087008821
10	181	49	16.050765266624
10	182	49.5	15.946540788627
10	183	50	16.047154875864
10	184	50.5	16.044851440415
10	350	51	15.954742200878
10	430	51.5	15.988267603103
10	431	52	15.933767139437
10	432	52.5	16.010416099606
10	433	53	16.041816550598
10	434	53.5	15.990570030597
10	435	54	16.027989416488
10	436	54.5	15.979148138783
10	437	55	15.950659864785
10	438	55.5	15.991674751526
10	439	56	15.997690081024
10	440	56.5	15.981501906892
10	441	57	16.04799563116
10	442	57.5	15.963222563442
10	443	58	16.038185222203
10	444	58.5	15.936626598835
10	445	59	15.984057411778
10	446	59.5	16.003633745774
10	447	60	15.963876459068
10	448	60.5	16.045317722033
10	449	61	16.015014840826
10	450	61.5	15.959403668982
10	451	62	16.044345152635
10	452	62.5	15.946472504267
10	453	63	16.002355689335
10	454	63.5	16.018551534675
10	455	64	15.939434887635
10	456	64.5	15.991640690449
10	457	65	15.997804384644
10	458	65.5	16.016177602611
10	459	66	16.00453357809
10	460	66.5	15.995890068007
10	461	67	16.023923876675
10	462	67.5	15.991254406113
10	463	68	15.994018678272
10	464	68.5	15.988070448595
10	465	69	15.93676252109
10	466	69.5	15.967154056163
10	467	70	16.011636202936
10	468	70.5	15.970438039953
10	469	71	15.987461896255
10	470	71.5	15.977461426335
10	471	72	16.03284261765
10	472	72.5	16.021682521042
10	473	73	16.033256374903
10	474	73.5	15.99625723908
10	475	74	16.00028482378
10	476	74.5	15.96132482237
10	477	75	15.962744717002
10	478	75.5	16.0086616574
10	479	76	15.938323096014
10	480	76.5	15.961653459515
10	481	77	15.955640514649
10	482	77.5	16.032175811548
10	483	78	15.926918053932
10	484	78.5	16.031490501538
10	485	79	15.965893764305
10	486	79.5	16.000205702938
10	487	80	15.967191368172
10	488	80.5	15.964593912738
10	489	81	15.924664247535
10	490	81.5	15.929087276147
10	491	82	16.020948994891
10	492	82.5	16.03437451145
10	493	83	15.953814384388
10	494	83.5	15.997050947214
10	495	84	16.035249913235
10	496	84.5	16.015948285708
10	497	85	15.938694598677
10	498	85.5	15.966882932121
10	499	86	15.933520483126
10	500	86.5	15.455755764234
10	501	87	13.205755764234
10	502	87.5	10.955755764234
10	503	88	8.7057557642343
10	504	88.5	6.4583663443107
10	505	89	7.7583663443107
10	506	89.5	8.9456801394144
10	507	90	9.8591548633812
10	508	90.5	10.996745942438
10	509	91	11.874959272428
10	510	91.5	12.846652529748
10	511	92	13.71309401661
10	512	92.5	14.640323151618
10	513	93	15.598211182037
10	514	93.5	16.007034735571
10	515	94	15.92431600503
10	516	94.5	15.968203354385
10	517	95	16.031358260687
10	518	95.5	16.025419193916
10	519	96	16.022096646233
10	520	96.5	16.040075402907
10	521	97	15.973437943613
10	522	97.5	15.954632574418
10	523	98	16.027704263116
10	524	98.5	16.015874103359
10	525	99	15.982719374909
10	526	99.5	16.006271613415
10	527	100	16.031546367882
10	528	100.5	15.964046528663
10	529	101	15.930924477014
10	530	101.5	15.992789759089
10	531	102	16.037131014695
10	532	102.5	16.017568624886
10	533	103	15.939912445771
10	534	103.5	15.92861611978
10	535	104	15.950342137947
10	536	104.5	15.930654974489
10	537	105	15.977008021505
10	538	105.5	15.967395167924
10	539	106	15.925929791311
10	540	106.5	16.002141814218
10	541	107	16.033887817073
10	542	107.5	16.000063995503
10	543	108	15.986023529375
10	544	108.5	16.051047794067
10	545	109	16.036804904715
10	546	109.5	16.012911528326
10	547	110	15.996830157862
10	548	110.5	15.982299209622
10	549	111	16.009787971417
10	550	111.5	15.931174239517
10	551	112	16.036880579093
10	552	112.5	15.958765607023
10	553	113	16.022891758015
10	554	113.5	15.997599938701
10	555	114	16.001788086277
10	556	114.5	16.021798173464
11	3	1	2.1601955810489
11	4	1.5	3.1144628968242
11	5	2	4.1105820955232
11	6	2.5	5.2289444127435
11	7	3	6.0858094900696
11	8	3.5	7.0473769874488
11	9	4	8.1433097840416
11	10	4.5	9.173221089911
11	11	5	10.05867896536
11	12	5.5	11.148680243594
11	13	6	12.171584089579
11	14	6.5	13.106705217048
11	15	7	13.99409036707
11	16	7.5	14.543085340356
11	17	8	14.602687780525
11	18	8.5	14.517289030695
11	19	9	14.570008487972
11	20	9.5	14.575677133071
11	21	10	14.560443590894
11	22	10.5	14.61913622578
11	23	11	14.54825024424
11	24	11.5	14.519225431246
11	25	12	14.543037858788
11	26	12.5	14.612220510697
11	27	13	14.538531441971
11	28	13.5	14.588886783152
11	29	14	14.586384882714
11	30	14.5	14.525227403968
11	31	15	14.635057979818
11	32	15.5	14.556876347599
11	33	16	14.55173467303
11	34	16.5	14.521861440282
11	35	17	14.524333486348
11	36	17.5	14.61959528806
11	37	18	14.517940223239
11	38	18.5	14.534069228821
11	39	19	14.557720358247
11	40	19.5	14.618730225999
11	41	20	14.640260186026
11	42	20.5	14.559702563066
11	43	21	14.570991012117
11	44	21.5	14.576682747238
11	45	22	14.547124937753
11	46	22.5	14.542483149316
11	47	23	14.608776330758
11	48	23.5	14.563148345725
11	49	24	14.584590232608
11	50	24.5	14.596463933828
11	51	25	14.632218628198
11	52	25.5	14.640536238936
11	53	26	14.56424671979
11	54	26.5	14.59985831915
11	55	27	12.99679047554
11	56	27.5	11.634470266352
11	57	28	11.410184876751
11	58	28.5	9.1768068300144
11	59	29	8.6692932682091
11	60	29.5	8.6545815453751
11	61	30	8.7020650549073
11	62	30.5	8.6871573199102
11	63	31	8.6874157221059
11	64	31.5	8.6518976251481
11	65	32	8.7110292333926
11	66	32.5	8.774150936534
11	67	33	8.7104188366423
11	68	33.5	8.6722553810503
11	69	34	8.7317063623786
11	70	34.5	8.6881515744424
11	71	35	8.7715638518802
11	72	35.5	8.7794007455933
11	73	36	8.7632931033967
11	74	36.5	8.7074452181233
11	75	37	8.693996891219
11	76	37.5	8.7769655293066
11	77	38	8.6914618702515
11	78	38.5	8.7105710856596
11	79	39	8.6624263996587
11	80	39.5	8.6731065072774
11	81	40	8.6904158540469
11	82	40.5	8.6650666580468
11	83	41	8.6606381080093
11	84	41.5	8.6934913809624
11	85	42	8.6606514358803
11	86	42.5	8.7544216800577
11	87	43	8.7445978709499
11	88	43.5	8.7012716774506
11	89	44	8.7185145582704
11	90	44.5	8.667836338247
11	91	45	8.6909460607383
11	92	45.5	8.7075279357404
11	93	46	8.7485729695743
11	94	46.5	8.7242872684801
11	95	47	8.7322103780022
11	96	47.5	8.7531157424467
11	97	48	8.7799054334385
11	98	48.5	8.7732399426869
11	181	49	8.6577463098129
11	182	49.5	8.7618389691369
11	183	50	8.7209031851383
11	184	50.5	8.6769899024165
11	350	51	8.6641497856428
11	430	51.5	8.6936713287866
11	431	52	8.6623799932099
11	432	52.5	8.7401000922525
11	433	53	8.7784088976987
11	434	53.5	8.7419353317845
11	435	54	8.7384252621073
11	436	54.5	8.6676370343196
11	437	55	8.7160342569442
11	438	55.5	8.715332665907
11	439	56	8.780635785356
11	440	56.5	8.6968886990406
11	441	57	8.6968477597766
11	442	57.5	8.6854054624381
11	443	58	8.779265278145
11	444	58.5	8.7618051253239
11	445	59	8.6807704321764
11	446	59.5	7.8473887787452
11	447	60	7.0173887787452
11	448	60.5	8.2610976064713
11	449	61	8.744770626738
11	450	61.5	8.7614393422499
11	451	62	8.7142987736038
11	452	62.5	8.7401116884619
11	453	63	8.6869030514129
11	454	63.5	8.7490637344195
11	455	64	8.7702039589852
11	456	64.5	8.7444894748836
11	457	65	8.7359588133779
11	458	65.5	8.7609916175695
11	459	66	8.7728298290635
11	460	66.5	8.7583424186244
11	461	67	8.7032469455435
11	462	67.5	8.7681611490066
11	463	68	8.7772734280399
11	464	68.5	8.7244816663003
11	465	69	8.6597574304536
11	466	69.5	8.7010967854995
11	467	70	7.0643598282226
11	468	70.5	6.9443598282226
11	469	71	8.1501582665793
11	470	71.5	8.7750914363077
11	471	72	8.7280203766029
11	472	72.5	8.6893657501208
11	473	73	8.741511089702
11	474	73.5	8.6624551426808
11	475	74	8.6534976375897
11	476	74.5	8.663464951718
11	477	75	8.7583733426969
11	478	75.5	8.7149393940557
11	479	76	8.6982197976395
11	480	76.5	8.7566471239322
11	481	77	8.7052524003808
11	482	77.5	8.7195255860177
11	483	78	8.774701562885
11	484	78.5	8.7341693063176
11	485	79	8.6840731273012
11	486	79.5	8.7778716253399
11	487	80	8.7128668408494
11	488	80.5	8.701766609622
11	489	81	8.7216747665292
11	490	81.5	8.6578477999059
11	491	82	8.6718263143118
11	492	82.5	8.6649365852916
11	493	83	8.7757376939294
11	494	83.5	8.7237144108096
11	495	84	8.735012030334
11	496	84.5	8.7287128063085
11	497	85	8.7219206803667
11	498	85.5	8.687624826534
11	499	86	8.6960762730337
11	500	86.5	8.7545836010578
11	501	87	8.7548404569531
11	502	87.5	8.6759325995229
11	503	88	8.7730209290658
11	504	88.5	8.6616757868978
11	505	89	8.7090935847282
11	506	89.5	8.6744481950698
11	507	90	8.6986431660064
11	508	90.5	8.681419831524
11	509	91	8.7218333733061
11	510	91.5	8.7461864816843
11	511	92	8.656681253291
11	512	92.5	8.6512428836225
11	513	93	8.743206271888
11	514	93.5	8.7282528218839
11	515	94	8.6547085314317
11	516	94.5	8.6882510990839
11	517	95	8.7401148005554
11	518	95.5	8.7279904800377
11	519	96	8.7751050398595
11	520	96.5	8.7331172553429
11	521	97	8.7710751733163
11	522	97.5	8.7428836030143
11	523	98	8.7494325259796
11	524	98.5	8.7260785155257
11	525	99	8.6980728152211
11	526	99.5	8.7679445871527
11	527	100	8.651732086337
11	528	100.5	8.7367764680579
11	529	101	8.6629331471797
11	530	101.5	8.6844162257624
11	531	102	8.67152833025
11	532	102.5	8.6681075876582
11	533	103	8.747604152195
11	534	103.5	8.6515674696703
11	535	104	8.727775169886
11	536	104.5	8.7801494413012
11	537	105	8.7590364766869
11	538	105.5	8.7793189245139
11	539	106	8.7077228623725
11	540	106.5	8.7338572599625
11	541	107	8.681987478894
11	542	107.5	8.6700762309067
11	543	108	8.7734306402763
11	544	108.5	8.0551997031817
11	545	109	6.5338401966119
11	546	109.5	7.7494231655864
11	547	110	8.6047976621865
11	548	110.5	8.6686406686579
11	549	111	8.733274376991
11	550	111.5	8.6836990897244
11	551	112	8.6636803488296
11	552	112.5	8.725681700928
11	553	113	8.716033777227
11	554	113.5	8.7279512174989
11	555	114	8.753838190425
11	556	114.5	8.731508876982
12	4	1.5	0.90630194198784
12	5	2	0.91340702508576
12	6	2.5	0.96825475567952
12	7	3	1.001690817643
12	8	3.5	0.73637216261588
12	9	4	0.8844090156164
12	10	4.5	0.85604035260156
12	11	5	0.94190141592175
12	12	5.5	0.87370130069554
12	13	6	0.89731501227245
12	14	6.5	0.7596429517027
12	15	7	0.97169857121073
12	16	7.5	0.99587312475778
12	17	8	0.86374559696764
12	18	8.5	0.76456936011091
12	19	9	0.79889440412633
12	20	9.5	0.93416607781313
12	21	10	0.87777238251641
12	22	10.5	0.92371814771554
12	23	11	0.93108706858008
12	24	11.5	0.90864346138201
12	25	12	0.79313572201877
12	26	12.5	0.87431033494881
12	27	13	0.97034959137439
12	28	13.5	0.98360280549153
12	29	14	0.89162361418827
12	30	14.5	0.97794342010281
12	31	15	0.84577668593264
12	32	15.5	0.80947559558786
12	33	16	1.0745330942888
12	34	16.5	0.9206899466738
12	35	17	0.79484071819111
12	36	17.5	0.83752169860526
12	37	18	0.95642699377611
12	38	18.5	0.78657678823919
12	39	19	0.93948051857763
12	40	19.5	0.93209200378508
12	41	20	0.87385098310188
12	42	20.5	0.89886402189732
12	43	21	0.95356077823789
12	44	21.5	1.0006243242603
12	45	22	0.88197967979127
12	46	22.5	0.91466382066721
12	47	23	0.94967480415479
12	48	23.5	0.93209277768621
[...]
106	78	38.5	1715.6981774261
106	79	39	1712.5749913808
106	80	39.5	1709.471389954
106	81	40	1706.381194598
106	82	40.5	1703.2973388229
106	83	41	1700.2331441315
106	84	41.5	1697.1878094254
106	85	42	1694.1558727017
106	86	42.5	1691.1318455786
106	87	43	1688.1043257061
106	88	43.5	1685.1069682678
106	89	44	1682.1052300902
106	90	44.5	1679.0949805686
106	91	45	1676.0829067687
106	92	45.5	1673.1091487277
106	93	46	1670.1191325905
106	94	46.5	1667.1386658931
106	95	47	1664.1468824223
106	96	47.5	1661.1588397678
106	97	48	1658.1749804346
106	98	48.5	1655.0967906043
106	181	49	1651.8742655227
106	182	49.5	1648.6684058094
106	183	50	1645.2495939974
106	184	50.5	1641.575068038
106	350	51	1637.976340875
106	430	51.5	1634.551281712
106	431	52	1630.789981124
106	432	52.5	1626.6984228306
106	433	53	1623.18397748
106	434	53.5	1619.7201947365
106	435	54	1615.6755088167
106	436	54.5	1611.1983303251
106	437	55	1606.2187929256
106	438	55.5	1600.9222490983
106	439	56	1595.6654702304
106	440	56.5	1590.4267498935
106	441	57	1585.2279640073
106	442	57.5	1580.0473864032
106	443	58	1574.9220304936
106	444	58.5	1569.8009275747
106	445	59	1564.7041124767
106	446	59.5	1559.6253891662
106	447	60	1554.5509500336
106	448	60.5	1549.4863181701
106	449	61	1544.4275588002
106	450	61.5	1539.3675306337
106	451	62	1534.3302503023
106	452	62.5	1529.3258897401
106	453	63	1524.3115657885
106	454	63.5	1519.3030575039
106	455	64	1514.2887058342
106	456	64.5	1509.2747659059
106	457	65	1504.2598500336
106	458	65.5	1499.2500252444
106	459	66	1494.2490622057
106	460	66.5	1489.2521108547
106	461	67	1484.2506520543
106	462	67.5	1479.250416589
106	463	68	1474.2666498357
106	464	68.5	1469.2558923401
106	465	69	1464.2226508567
106	466	69.5	1459.2084077047
106	467	70	1454.2187339263
106	468	70.5	1449.2354408028
106	469	71	1444.2485157568
106	470	71.5	1439.4279079875
106	471	72	1434.9437098708
106	472	72.5	1430.5218803436
106	473	73	1425.9923878917
106	474	73.5	1421.4583390402
106	475	74	1417.3756615492
106	476	74.5	1413.2915749177
106	477	75	1409.0176959299
106	478	75.5	1404.7162870541
106	479	76	1401.0266035777
106	480	76.5	1397.2868341245
106	481	77	1393.2393569713
106	482	77.5	1389.0528103355
106	483	78	1385.6230319683
106	484	78.5	1381.7658486813
106	485	79	1377.3945162604
106	486	79.5	1372.5353361033
106	487	80	1367.1549660023
106	488	80.5	1361.2267109584
106	489	81	1355.0041988185
106	490	81.5	1349.5756544229
106	491	82	1343.850781966
106	492	82.5	1338.2270605788
106	493	83	1332.7014170988
106	494	83.5	1327.2734544398
106	495	84	1321.9103022078
106	496	84.5	1316.5842523472
106	497	85	1311.3287975779
106	498	85.5	1306.1383081526
106	499	86	1300.978721329
106	500	86.5	1295.8565685218
106	501	87	1290.7703337939
106	502	87.5	1285.7247810001
106	503	88	1280.6770341359
106	504	88.5	1275.6573148947
106	505	89	1270.653111387
106	506	89.5	1265.6591527285
106	507	90	1260.6996145062
106	508	90.5	1255.7495354526
106	509	91	1250.8330022627
106	510	91.5	1245.9103150424
106	511	92	1240.9832602832
106	512	92.5	1236.0458844043
106	513	93	1231.1165962303
106	514	93.5	1226.1859194413
106	515	94	1221.2835842213
106	516	94.5	1216.3678615326
106	517	95	1211.4518690379
106	518	95.5	1206.5259103943
106	519	96	1201.6249067103
106	520	96.5	1196.7203028267
106	521	97	1191.8175883284
106	522	97.5	1186.8558546146
106	523	98	1181.9080117997
106	524	98.5	1176.936595967
106	525	99	1171.9965224285
106	526	99.5	1170.0004672911
106	527	100	1170.2656855574
106	528	100.5	1170.5316984747
106	529	101	1170.7984707495
106	530	101.5	1170.9257541979
106	531	102	1170.9528996674
106	532	102.5	1170.9801222049
106	533	103	1171.0073179277
106	534	103.5	1171.0345533155
106	535	104	1171.0617052764
106	536	104.5	1171.0889872778
106	537	105	1171.1162088271
106	538	105.5	1171.1434225785
106	539	106	1171.1705293478
106	540	106.5	1171.1977316691
106	541	107	1171.2249514721
106	542	107.5	1171.3061461085
106	543	108	1171.4000467611
106	544	108.5	1171.4904724704
106	545	109	1171.5035524629
106	546	109.5	1171.5166165773
106	547	110	1171.5297024949
106	548	110.5	1171.5366598153
106	549	111	1171.5209674081
106	550	111.5	1171.4959158553
106	551	112	1171.4703294206
106	552	112.5	1171.444692634
106	553	113	1171.4189716633
106	554	113.5	1171.3933473518
106	555	114	1171.2503714226
106	556	114.5	1171.0898575876
107	40	19.5	2.065513285686
107	41	20	2.9240993874418
107	42	20.5	3.7950039299941
107	43	21	4.7734805876311
107	44	21.5	5.6879023730467
107	45	22	6.5898310169941
107	46	22.5	7.5990618778989
107	47	23	7.7721649363796
107	48	23.5	7.3721099343199
107	49	24	7.149379716798
107	50	24.5	6.9863222823231
107	51	25	6.8298737109141
107	52	25.5	6.6916455239091
107	53	26	6.6829343015967
107	54	26.5	7.0223018462572
107	55	27	7.3812398442971
107	56	27.5	7.4859868196552
107	57	28	7.6493453207604
107	58	28.5	7.6085962153345
107	59	29	7.692106977857
107	60	29.5	8.1960712383326
107	61	30	8.8076184742723
107	62	30.5	8.8232325907748
107	63	31	8.6536523406029
107	64	31.5	8.3975680951608
107	65	32	7.9078427221458
107	66	32.5	7.6718454924393
107	67	33	7.4304328828099
107	68	33.5	7.3892073234266
107	69	34	7.1827348395662
107	70	34.5	6.9367784754076
107	71	35	6.8914933502554
107	72	35.5	6.8103046186079
107	73	36	6.5831041154331
107	74	36.5	6.5493105384325
107	75	37	6.4770235902395
107	76	37.5	6.3563266437398
107	77	38	6.3084773316172
107	78	38.5	6.2440419672607
107	79	39	6.254683664116
107	80	39.5	6.1531057115766
107	81	40	6.1529508502927
107	82	40.5	6.1525457857777
107	83	41	6.1628783526571
107	84	41.5	6.0280770226662
107	85	42	6.0688171591075
107	86	42.5	6.0877214581592
107	87	43	6.0087528133421
107	88	43.5	5.9164472176116
107	89	44	6.0115613468139
107	90	44.5	6.0493846294703
107	91	45	5.9477805789484
107	92	45.5	5.8989934514524
107	93	46	5.9731556322724
107	94	46.5	6.0015806921055
107	95	47	5.9493303083369
107	96	47.5	5.9500719132143
107	97	48	5.9553636209574
107	98	48.5	6.2227921841613
107	181	49	6.6823362910289
107	182	49.5	6.5214442974481
107	183	50	7.1333069474028
107	184	50.5	7.3690525157247
107	350	51	6.8357990082831
107	430	51.5	7.1541315570831
107	431	52	7.7506347829881
107	432	52.5	8.3708412832716
107	433	53	6.1518612067789
107	434	53.5	7.4518612067789
107	435	54	8.42813143616
107	436	54.5	9.2932364068475
107	437	55	10.411358237734
107	438	55.5	10.607510293846
107	439	56	10.481316081548
107	440	56.5	10.487583736657
107	441	57	10.372160036231
107	442	57.5	10.391601304864
107	443	58	10.255740195866
107	444	58.5	10.15501739778
107	445	59	10.205510019882
107	446	59.5	10.183727817256
107	447	60	10.145308173181
107	448	60.5	10.121236740949
107	449	61	10.151149889364
107	450	61.5	10.131181819541
107	451	62	10.028529524405
107	452	62.5	10.006415300266
107	453	63	10.106749217645
107	454	63.5	10.093507281577
107	455	64	10.021789462369
107	456	64.5	10.011963884952
107	457	65	10.0790737271
107	458	65.5	10.006335837047
107	459	66	10.027849982509
107	460	66.5	9.9510928951917
107	461	67	10.002285840101
107	462	67.5	9.996569190997
107	463	68	9.9467534878162
107	464	68.5	9.9843568525826
107	465	69	10.032342327419
107	466	69.5	10.03402670072
107	467	70	9.9335234837664
107	468	70.5	9.9839235881316
107	469	71	9.9831750790154
107	470	71.5	9.3029632911397
107	471	72	8.7899080975049
107	472	72.5	8.8808722413343
107	473	73	9.1664234612899
107	474	73.5	8.7820791852664
107	475	74	7.9539830105353
107	476	74.5	8.3742928605557
107	477	75	8.6485972116879
107	478	75.5	8.2246143275012
107	479	76	7.2147674158287
107	480	76.5	7.7591615558588
107	481	77	8.3986676653699
107	482	77.5	7.8132095396323
107	483	78	6.9832095396323
107	484	78.5	8.1771270495621
107	485	79	9.1388032441437
107	486	79.5	10.145057155538
107	487	80	11.287054184316
107	488	80.5	12.374350689739
107	489	81	12.255350599862
107	490	81.5	11.789235801723
107	491	82	11.46477208945
107	492	82.5	11.385737273201
107	493	83	11.047487349018
107	494	83.5	10.923521822508
107	495	84	10.8174667508
107	496	84.5	10.760394604463
107	497	85	10.546522672595
107	498	85.5	10.474177884048
107	499	86	10.422108705944
107	500	86.5	10.443045743898
107	501	87	10.353559090693
107	502	87.5	10.225468707103
107	503	88	10.198390391355
107	504	88.5	10.108179219734
107	505	89	10.119970417858
107	506	89.5	10.15902731158
107	507	90	10.046019764903
107	508	90.5	10.114681044265
107	509	91	10.037483188932
107	510	91.5	10.09046860855
107	511	92	10.023712954948
107	512	92.5	10.108189196345
107	513	93	10.035037302271
107	514	93.5	10.002060004754
107	515	94	9.9934748067778
107	516	94.5	9.9647175470863
107	517	95	10.069155752257
107	518	95.5	10.015155559298
107	519	96	9.9294546608086
107	520	96.5	10.049010888961
107	521	97	10.033787667791
107	522	97.5	10.076412448241
107	523	98	9.995849755876
107	524	98.5	10.071047736946
107	525	99	9.9933558031171
107	526	99.5	10.011780801906
107	527	100	9.9760731228354
107	528	100.5	10.073749978042
107	529	101	10.028087972022
107	530	101.5	10.010555807002
107	531	102	10.093718597156
107	532	102.5	10.035359375223
107	533	103	10.077945125246
107	534	103.5	9.9547941815119
107	535	104	9.9144038965991
107	536	104.5	9.9616288795365
107	537	105	10.066894286189
107	538	105.5	9.9652002340298
107	539	106	9.9356078997988
107	540	106.5	9.9919444103141
107	541	107	9.9414418120034
107	542	107.5	9.8996255881628
107	543	108	10.043150914833
107	544	108.5	9.95895338897
107	545	109	10.004029470593
107	546	109.5	9.943037137603
107	547	110	9.9707812195755
107	548	110.5	9.9327839984792
107	549	111	10.026628428732
107	550	111.5	10.029594321876
107	551	112	9.9687743087769
107	552	112.5	9.9333433193065
107	553	113	10.03573848735
107	554	113.5	9.985476775098
107	555	114	9.9334752223874
107	556	114.5	10.0301697854
108	41	20	1.7171722035117
108	42	20.5	1.7418090851046
108	43	21	1.9569533152739
108	44	21.5	1.8288435708312
108	45	22	1.8038572878949
108	46	22.5	2.0184617218096
108	47	23	0.3462061169614
108	48	23.5	-0.80011000411945
108	49	24	-0.44546043504379
108	50	24.5	-0.32611486894978
108	51	25	-0.31289714281812
108	52	25.5	-0.27645637400994
108	53	26	-0.017422444624831
108	54	26.5	0.67873508932103
108	55	27	0.71787599607982
108	56	27.5	0.2094939507161
108	57	28	0.32671700221056
108	58	28.5	-0.081498210851787
108	59	29	0.16702152504502
108	60	29.5	1.0079285209511
108	61	30	1.2230944718794
108	62	30.5	0.031228233005013
108	63	31	-0.33916050034381
108	64	31.5	-0.5121684908843
108	65	32	-0.97945074602991
108	66	32.5	-0.47199445941309
108	67	33	-0.4828252192588
108	68	33.5	-0.082451118766572
108	69	34	-0.4129449677207
108	70	34.5	-0.49191272831718
108	71	35	-0.090570250304387
108	72	35.5	-0.16237746329512
108	73	36	-0.45440100634965
108	74	36.5	-0.067587154001057
108	75	37	-0.14457389638602
108	76	37.5	-0.24139389299944
108	77	38	-0.095698624245113
108	78	38.5	-0.12887072871299
108	79	39	0.021283393710515
108	80	39.5	-0.20315590507876
108	81	40	-0.00030972256787365
108	82	40.5	-0.00081012903002531
108	83	41	0.02066513375884
108	84	41.5	-0.26960265998173
108	85	42	0.081480272882516
108	86	42.5	0.037808598103348
108	87	43	-0.15793728963408
108	88	43.5	-0.18461119146111
108	89	44	0.1902282584047
108	90	44.5	0.075646565312672
108	91	45	-0.2032081010438
108	92	45.5	-0.097574254991834
108	93	46	0.1483243616399
108	94	46.5	0.056850119666203
108	95	47	-0.10450076753728
108	96	47.5	0.001483209754884
108	97	48	0.010583415486204
108	98	48.5	0.53485712640785
108	181	49	0.91908821373516
108	182	49.5	-0.32178398716163
108	183	50	1.2237252999093
108	184	50.5	0.47149113664397
108	350	51	-1.0665070148832
108	430	51.5	0.63666509759987
108	431	52	1.1930064518102
108	432	52.5	1.2404130005668
108	433	53	-4.4379601529852
108	434	53.5	2.6
108	435	54	1.9525404587621
108	436	54.5	1.7302099413751
108	437	55	2.2362436617725
108	438	55.5	0.39230411222449
108	439	56	-0.25238842459522
108	440	56.5	0.012535310217835
108	441	57	-0.23084740085221
108	442	57.5	0.03888253726652
108	443	58	-0.27172221799725
108	444	58.5	-0.20144559617241
108	445	59	0.10098524420443
108	446	59.5	-0.043564405251566
108	447	60	-0.076839288150705
108	448	60.5	-0.048142864463301
108	449	61	0.059826296830142
108	450	61.5	-0.039936139646883
108	451	62	-0.20530459027066
108	452	62.5	-0.044228448278329
108	453	63	0.20066783475762
108	454	63.5	-0.026483872135493
108	455	64	-0.14343563841712
108	456	64.5	-0.019651154833831
108	457	65	0.13421968429555
108	458	65.5	-0.14547578010508
108	459	66	0.043028290923161
108	460	66.5	-0.15351417463382
108	461	67	0.10238588981848
108	462	67.5	-0.01143329820788
108	463	68	-0.09963140636161
108	464	68.5	0.075206729532841
108	465	69	0.095970949672537
108	466	69.5	0.0033687466014207
108	467	70	-0.20100643390634
108	468	70.5	0.10080020873034
108	469	71	-0.0014970182322571
108	470	71.5	-1.3604235757516
108	471	72	-1.0261103872696
108	472	72.5	0.18192828765887
108	473	73	0.57110243991111
108	474	73.5	-0.76868855204702
108	475	74	-1.6561923494621
108	476	74.5	0.84061970004081
108	477	75	0.54860870226439
108	478	75.5	-0.84796576837347
108	479	76	-2.0196938233449
108	480	76.5	1.08878828006
108	481	77	1.2790122190223
108	482	77.5	-1.1709162514752
108	483	78	-1.66
108	484	78.5	2.3878350198595
108	485	79	1.9233523891633
108	486	79.5	2.0125078227883
108	487	80	2.2839940575557
108	488	80.5	2.1745930108475
108	489	81	-0.23800017975426
108	490	81.5	-0.93222959627763
108	491	82	-0.64892742454639
108	492	82.5	-0.15806963249916
108	493	83	-0.67649984836562
108	494	83.5	-0.24793105302075
108	495	84	-0.21211014341534
108	496	84.5	-0.11414429267407
108	497	85	-0.42774386373472
108	498	85.5	-0.14468957709531
108	499	86	-0.10413835620719
108	500	86.5	0.041874075908478
108	501	87	-0.17897330641109
108	502	87.5	-0.25618076718067
108	503	88	-0.054156631495935
108	504	88.5	-0.18042234324143
108	505	89	0.023582396248322
108	506	89.5	0.078113787444845
108	507	90	-0.22601509335524
108	508	90.5	0.13732255872464
108	509	91	-0.15439571066559
108	510	91.5	0.10597083923516
108	511	92	-0.13351130720407
108	512	92.5	0.16895248279491
108	513	93	-0.14630378814809
108	514	93.5	-0.065954595034707
108	515	94	-0.017170395952324
108	516	94.5	-0.057514519383037
108	517	95	0.20887641034086
108	518	95.5	-0.10800038591778
108	519	96	-0.17140179697844
108	520	96.5	0.23911245630467
108	521	97	-0.0304464423395
108	522	97.5	0.085249560899012
108	523	98	-0.16112538472954
108	524	98.5	0.15039596213949
108	525	99	-0.15538386765714
108	526	99.5	0.036849997578653
108	527	100	-0.071415358142101
108	528	100.5	0.19535371041403
108	529	101	-0.091324012040459
108	530	101.5	-0.035064330041081
108	531	102	0.16632558030826
108	532	102.5	-0.11671844386476
108	533	103	0.085171500044371
108	534	103.5	-0.24630188746736
108	535	104	-0.080780569825581
108	536	104.5	0.094449965874745
108	537	105	0.21053081330428
108	538	105.5	-0.20338810431773
108	539	106	-0.05918466846186
108	540	106.5	0.1126730210306
108	541	107	-0.10100519662145
108	542	107.5	-0.083632447681271
108	543	108	0.28705065334108
108	544	108.5	-0.16839505172662
108	545	109	0.090152163245481
108	546	109.5	-0.1219846659794
108	547	110	0.055488163944837
108	548	110.5	-0.075994442192481
108	549	111	0.18768886050473
108	550	111.5	0.0059317862878494
108	551	112	-0.12164002619728
108	552	112.5	-0.070861978940727
108	553	113	0.20479033608727
108	554	113.5	-0.10052342450431
108	555	114	-0.10400310542114
108	556	114.5	0.19338912602611
109	41	20	2.4634731273316
109	42	20.5	2.8911715661316
109	43	21	3.6016170273511
109	44	21.5	3.9083340027807
109	45	22	4.3191240792421
109	46	22.5	5.2136739820135
109	47	23	2.1767759861862
109	48	23.5	0.973
109	49	24	0.973
109	50	24.5	0.973
109	51	25	0.973
109	52	25.5	0.973
109	53	26	1.4318967657698
109	54	26.5	2.6294197387639
109	55	27	2.780235558582
109	56	27.5	1.8878311193925
109	57	28	2.1226518125731
109	58	28.5	1.3682875896639
109	59	29	1.832735819701
109	60	29.5	3.547154063316
109	61	30	4.194181201873
109	62	30.5	1.6654899682822
109	63	31	0.973
109	64	31.5	0.973
109	65	32	0.973
109	66	32.5	0.973
109	67	33	0.973
109	68	33.5	1.3568970826736
109	69	34	0.973
109	70	34.5	0.973
109	71	35	1.3222572393175
109	72	35.5	0.973
109	73	36	0.973
109	74	36.5	1.345211588078
109	75	37	1.2218786289425
109	76	37.5	0.973
109	77	38	1.2920186436612
109	78	38.5	1.2397750924276
109	79	39	1.4664122548565
109	80	39.5	0.973
109	81	40	1.4278781202724
109	82	40.5	1.4271123760589
109	83	41	1.4596135926918
109	84	41.5	0.973
109	85	42	1.5425798855973
109	86	42.5	1.4799841085226
109	87	43	0.973
109	88	43.5	0.973
109	89	44	1.6956672181913
109	90	44.5	1.5325581813796
109	91	45	0.973
109	92	45.5	1.2748132536632
109	93	46	1.6313496817396
109	94	46.5	1.5017127951677
109	95	47	1.2666162522416
109	96	47.5	1.4186181866301
109	97	48	1.4319883195171
109	98	48.5	2.234569114279
109	181	49	2.9400601049272
109	182	49.5	0.973
109	183	50	3.5913808162635
109	184	50.5	2.3397902850889
109	350	51	0.973
109	430	51.5	2.5866441403632
109	431	52	3.7553224240261
109	432	52.5	4.0703698856349
109	433	53	0.973
109	434	53.5	6.1770407305666
109	435	54	5.537838836663
109	436	54.5	5.5075485751531
109	437	55	7.3275408966978
109	438	55.5	2.7348551980465
109	439	56	0.973
109	440	56.5	1.7541653112831
109	441	57	0.973
109	442	57.5	1.8123294647764
109	443	58	0.973
109	444	58.5	1.2036102288391
109	445	59	1.9488819948211
109	446	59.5	1.5919086248307
109	447	60	1.5080008273083
109	448	60.5	1.5765972096122
109	449	61	1.8426835776064
109	450	61.5	1.5972818495597
109	451	62	0.973
109	452	62.5	1.578607318248
109	453	63	2.1816905425479
109	454	63.5	1.6274824552716
109	455	64	1.3400020797727
109	456	64.5	1.6382720344832
109	457	65	2.0168294259374
109	458	65.5	1.3344414589472
109	459	66	1.7908833201186
109	460	66.5	1.3129110754176
109	461	67	1.9317589099784
109	462	67.5	1.6569735347577
109	463	68	1.4419092773794
109	464	68.5	1.8645560923738
109	465	69	1.9192763346819
109	466	69.5	1.6955128494628
109	467	70	1.19853675119
109	468	70.5	1.9260964946664
109	469	71	1.6799000058562
109	470	71.5	0.973
109	471	72	0.973
109	472	72.5	1.9924978659558
109	473	73	2.8849648641207
109	474	73.5	0.973
109	475	74	0.973
109	476	74.5	3.264770587331
109	477	75	2.7304398700321
109	478	75.5	0.973
109	479	76	0.973
109	480	76.5	3.5634438416681
109	481	77	4.1587006652867
109	482	77.5	0.973
109	483	78	0.973
109	484	78.5	6.260651234881
109	485	79	5.8574547503268
109	486	79.5	6.6163537583828
109	487	80	8.0001981951678
109	488	80.5	8.3670912864513
109	489	81	1.1682947188744
109	490	81.5	0.973
109	491	82	0.973
109	492	82.5	1.3618611149725
109	493	83	0.973
109	494	83.5	0.973
109	495	84	1.1957977537444
109	496	84.5	1.4481713864553
109	497	85	0.973
109	498	85.5	1.3561908509338
109	499	86	1.4557730751166
109	500	86.5	1.8243694380689
109	501	87	1.265407923591
109	502	87.5	0.973
109	503	88	1.5668503326302
109	504	88.5	1.2535063648933
109	505	89	1.7514465300554
109	506	89.5	1.8881760296162
109	507	90	0.973
109	508	90.5	2.0282686186153
109	509	91	1.3141413757333
109	510	91.5	1.9493732509784
109	511	92	1.3640562816589
109	512	92.5	2.104609483793
109	513	93	1.3336159804831
109	514	93.5	1.5259520387429
109	515	94	1.6429297330718
109	516	94.5	1.5439815526459
109	517	95	2.1969181926291
109	518	95.5	1.4252552367693
109	519	96	1.2692702070617
109	520	96.5	2.2675934306556
109	521	97	1.6137244983604
109	522	97.5	1.8976202547943
109	523	98	1.2963126833161
109	524	98.5	2.0552186626308
109	525	99	1.3100480388078
109	526	99.5	1.7745871775434
109	527	100	1.511263926125
109	528	100.5	2.1646701808088
109	529	101	1.4662053932275
109	530	101.5	1.6009867038431
109	531	102	2.0965228766344
109	532	102.5	1.4051819444822
109	533	103	1.8975792214642
109	534	103.5	0.973
109	535	104	1.4852830110432
109	536	104.5	1.9086195253543
109	537	105	2.2006455126323
109	538	105.5	0.973
109	539	106	1.5381829364836
109	540	106.5	1.9554904458462
109	541	107	1.4383435700341
109	542	107.5	1.4776517933127
109	543	108	2.3828387384383
109	544	108.5	1.2774996308443
109	545	109	1.9024392384641
109	546	109.5	1.3881528838183
109	547	110	1.8158977129389
109	548	110.5	1.4977705039281
109	549	111	2.1403380115175
109	550	111.5	1.7013670186305
109	551	112	1.3901727994257
109	552	112.5	1.5100893230163
109	553	113	2.1828054570831
109	554	113.5	1.4417667608219
109	555	114	1.4307582597547
109	556	114.5	2.1545468210768

