version 3
run Default-0-20230123-15:51:05-28278
attr configname Default
attr datetime 20230123-15:51:05
attr datetimef 20230123-155105
attr experiment Default
attr inifile omnetpp.ini
attr iterationvars ""
attr iterationvarsd ""
attr iterationvarsf ""
attr measurement ""
attr network v5_0
attr processid 28278
attr repetition 0
attr replication #0
attr resultdir results
attr runnumber 0
attr seedset 0
config image-path ../../../inet4.4/images:../../../veins-5.2/images
config cmdenv-express-mode true
config cmdenv-autoflush true
config cmdenv-status-frequency 1s
config **.cmdenv-log-level info
config image-path ../../images
config network v5_0
config debug-on-errors true
config print-undisposed true
config **.scalar-recording true
config **.vector-recording true
config *.playgroundSizeX 3500m
config *.playgroundSizeY 3500m
config *.playgroundSizeZ 50m
config *.annotations.draw true
config *.obstacles.obstacles "xmldoc(\"config.xml\", \"//AnalogueModel[@type='SimpleObstacleShadowing']/obstacles\")"
config *.manager.updateInterval 0.5s
config *.manager.host "\"localhost\""
config *.manager.port 9999
config *.manager.autoShutdown true
config *.manager.launchConfig "xmldoc(\"v5_0_Final.launchd.xml\")"
config *.rsu[0].mobility.x 2000
config *.rsu[0].mobility.y 2000
config *.rsu[0].mobility.z 3
config *.rsu[*].applType "\"RSU\""
config *.rsu[*].appl.headerLength "80 bit"
config *.rsu[*].appl.sendBeacons false
config *.rsu[*].appl.dataOnSch false
config *.rsu[*].appl.beaconInterval 1s
config *.rsu[*].appl.beaconUserPriority 7
config *.rsu[*].appl.dataUserPriority 5
config *.rsu[*].nic.phy80211p.antennaOffsetZ "0 m"
config *.connectionManager.sendDirect true
config *.connectionManager.maxInterfDist 2600m
config *.connectionManager.drawMaxIntfDist false
config *.**.nic.mac1609_4.useServiceChannel false
config *.**.nic.mac1609_4.txPower 20mW
config *.**.nic.mac1609_4.bitrate 6Mbps
config *.**.nic.phy80211p.minPowerLevel -110dBm
config *.**.nic.phy80211p.useNoiseFloor true
config *.**.nic.phy80211p.noiseFloor -98dBm
config *.**.nic.phy80211p.decider "xmldoc(\"config.xml\")"
config *.**.nic.phy80211p.analogueModels "xmldoc(\"config.xml\")"
config *.**.nic.phy80211p.usePropagationDelay true
config *.**.nic.phy80211p.antenna "xmldoc(\"antenna.xml\", \"/root/Antenna[@id='monopole']\")"
config *.node[*].nic.phy80211p.antennaOffsetY "0 m"
config *.node[*].nic.phy80211p.antennaOffsetZ "1.895 m"
config *.**.nic.mac1609_4.useAcks true
config *.**.useAcks false
config *.node[*].applType "\"VeinsApp\""
config *.node[*].appl.headerLength "80 bit"
config *.node[*].appl.sendBeacons false
config *.node[*].appl.dataOnSch false
config *.node[*].appl.beaconInterval 1s
config *.node[*].veinsmobility.x 0
config *.node[*].veinsmobility.y 0
config *.node[*].veinsmobility.z 0
config *.node[*].veinsmobility.setHostSpeed false
config *.node[*0].veinsmobility.accidentCount 0
config *.node[*0].veinsmobility.accidentStart 73s
config *.node[*0].veinsmobility.accidentDuration 50s

vector 0 v5_0.node[0].veinsmobility posx ETV
vector 1 v5_0.node[0].veinsmobility posy ETV
vector 2 v5_0.node[1].veinsmobility posx ETV
vector 3 v5_0.node[1].veinsmobility posy ETV
vector 4 v5_0.node[2].veinsmobility posx ETV
vector 5 v5_0.node[2].veinsmobility posy ETV
vector 6 v5_0.node[3].veinsmobility posx ETV
vector 7 v5_0.node[3].veinsmobility posy ETV
vector 8 v5_0.node[0].veinsmobility speed ETV
vector 9 v5_0.node[1].veinsmobility speed ETV
vector 10 v5_0.node[2].veinsmobility speed ETV
vector 11 v5_0.node[3].veinsmobility speed ETV
vector 12 v5_0.node[0].veinsmobility acceleration ETV
vector 13 v5_0.node[0].veinsmobility co2emission ETV
vector 14 v5_0.node[1].veinsmobility acceleration ETV
vector 15 v5_0.node[1].veinsmobility co2emission ETV
vector 16 v5_0.node[2].veinsmobility acceleration ETV
vector 17 v5_0.node[2].veinsmobility co2emission ETV
vector 18 v5_0.node[3].veinsmobility acceleration ETV
vector 19 v5_0.node[3].veinsmobility co2emission ETV
vector 20 v5_0.node[4].veinsmobility posx ETV
vector 21 v5_0.node[4].veinsmobility posy ETV
vector 22 v5_0.node[5].veinsmobility posx ETV
vector 23 v5_0.node[5].veinsmobility posy ETV
vector 24 v5_0.node[6].veinsmobility posx ETV
vector 25 v5_0.node[6].veinsmobility posy ETV
vector 26 v5_0.node[4].veinsmobility speed ETV
vector 27 v5_0.node[5].veinsmobility speed ETV
vector 28 v5_0.node[6].veinsmobility speed ETV
vector 29 v5_0.node[7].veinsmobility posx ETV
vector 30 v5_0.node[7].veinsmobility posy ETV
vector 31 v5_0.node[4].veinsmobility acceleration ETV
vector 32 v5_0.node[4].veinsmobility co2emission ETV
vector 33 v5_0.node[5].veinsmobility acceleration ETV
vector 34 v5_0.node[5].veinsmobility co2emission ETV
vector 35 v5_0.node[6].veinsmobility acceleration ETV
vector 36 v5_0.node[6].veinsmobility co2emission ETV
vector 37 v5_0.node[7].veinsmobility speed ETV
vector 38 v5_0.node[7].veinsmobility acceleration ETV
vector 39 v5_0.node[7].veinsmobility co2emission ETV
vector 40 v5_0.node[8].veinsmobility posx ETV
vector 41 v5_0.node[8].veinsmobility posy ETV
vector 42 v5_0.node[9].veinsmobility posx ETV
vector 43 v5_0.node[9].veinsmobility posy ETV
vector 44 v5_0.node[10].veinsmobility posx ETV
vector 45 v5_0.node[10].veinsmobility posy ETV
vector 46 v5_0.node[8].veinsmobility speed ETV
vector 47 v5_0.node[9].veinsmobility speed ETV
vector 48 v5_0.node[10].veinsmobility speed ETV
vector 49 v5_0.node[8].veinsmobility acceleration ETV
vector 50 v5_0.node[8].veinsmobility co2emission ETV
vector 51 v5_0.node[9].veinsmobility acceleration ETV
vector 52 v5_0.node[9].veinsmobility co2emission ETV
vector 53 v5_0.node[10].veinsmobility acceleration ETV
vector 54 v5_0.node[10].veinsmobility co2emission ETV
vector 55 v5_0.node[11].veinsmobility posx ETV
vector 56 v5_0.node[11].veinsmobility posy ETV
vector 57 v5_0.node[11].veinsmobility speed ETV
vector 58 v5_0.node[12].veinsmobility posx ETV
vector 59 v5_0.node[12].veinsmobility posy ETV
vector 60 v5_0.node[11].veinsmobility acceleration ETV
vector 61 v5_0.node[11].veinsmobility co2emission ETV
vector 62 v5_0.node[13].veinsmobility posx ETV
vector 63 v5_0.node[13].veinsmobility posy ETV
vector 64 v5_0.node[12].veinsmobility speed ETV
vector 65 v5_0.node[12].veinsmobility acceleration ETV
vector 66 v5_0.node[12].veinsmobility co2emission ETV
vector 67 v5_0.node[13].veinsmobility speed ETV
vector 68 v5_0.node[14].veinsmobility posx ETV
vector 69 v5_0.node[14].veinsmobility posy ETV
vector 70 v5_0.node[13].veinsmobility acceleration ETV
vector 71 v5_0.node[13].veinsmobility co2emission ETV
vector 72 v5_0.node[14].veinsmobility speed ETV
vector 73 v5_0.node[14].veinsmobility acceleration ETV
vector 74 v5_0.node[14].veinsmobility co2emission ETV
vector 75 v5_0.node[15].veinsmobility posx ETV
vector 76 v5_0.node[15].veinsmobility posy ETV
vector 77 v5_0.node[16].veinsmobility posx ETV
vector 78 v5_0.node[16].veinsmobility posy ETV
vector 79 v5_0.node[15].veinsmobility speed ETV
vector 80 v5_0.node[16].veinsmobility speed ETV
vector 81 v5_0.node[17].veinsmobility posx ETV
vector 82 v5_0.node[17].veinsmobility posy ETV
vector 83 v5_0.node[15].veinsmobility acceleration ETV
vector 84 v5_0.node[15].veinsmobility co2emission ETV
vector 85 v5_0.node[16].veinsmobility acceleration ETV
vector 86 v5_0.node[16].veinsmobility co2emission ETV
vector 87 v5_0.node[17].veinsmobility speed ETV
vector 88 v5_0.node[17].veinsmobility acceleration ETV
vector 89 v5_0.node[17].veinsmobility co2emission ETV
vector 90 v5_0.node[18].veinsmobility posx ETV
vector 91 v5_0.node[18].veinsmobility posy ETV
vector 92 v5_0.node[18].veinsmobility speed ETV
vector 93 v5_0.node[18].veinsmobility acceleration ETV
vector 94 v5_0.node[18].veinsmobility co2emission ETV
vector 95 v5_0.node[19].veinsmobility posx ETV
vector 96 v5_0.node[19].veinsmobility posy ETV
vector 97 v5_0.node[19].veinsmobility speed ETV
vector 98 v5_0.node[20].veinsmobility posx ETV
vector 99 v5_0.node[20].veinsmobility posy ETV
vector 100 v5_0.node[19].veinsmobility acceleration ETV
vector 101 v5_0.node[19].veinsmobility co2emission ETV
vector 102 v5_0.node[20].veinsmobility speed ETV
vector 103 v5_0.node[20].veinsmobility acceleration ETV
vector 104 v5_0.node[20].veinsmobility co2emission ETV
vector 105 v5_0.node[21].veinsmobility posx ETV
vector 106 v5_0.node[21].veinsmobility posy ETV
vector 107 v5_0.node[21].veinsmobility speed ETV
vector 108 v5_0.node[21].veinsmobility acceleration ETV
vector 109 v5_0.node[21].veinsmobility co2emission ETV
0	2	0.5	2631.7350595066
0	4	1	2631.6926603558
0	5	1.5	2631.6229630968
0	6	2	2631.5282912727
0	7	2.5	2631.4086490547
0	8	3	2631.2604225505
0	9	3.5	2631.0878849679
0	10	4	2630.892145407
0	11	4.5	2630.6724391839
0	12	5	2630.4276965775
0	13	5.5	2630.1573760558
0	14	6	2629.8625589869
0	15	6.5	2629.5448277204
0	16	7	2629.2030409186
0	17	7.5	2628.6408029457
0	18	8	2627.8116486142
0	19	8.5	2626.9391961291
0	20	9	2626.0184382494
0	21	9.5	2625.0464957781
0	22	10	2624.0224871623
0	23	10.5	2622.9469447999
0	24	11	2621.8176152725
0	25	11.5	2620.6311656146
0	26	12	2619.3974312966
0	27	12.5	2618.1143565062
0	28	13	2616.7776122186
0	29	13.5	2615.3838827169
0	30	14	2613.933876192
0	31	14.5	2612.430882662
0	32	15	2610.8750346797
0	33	15.5	2609.2680088609
0	34	16	2607.6054052793
0	35	16.5	2605.8840043985
0	36	17	2604.1164308966
0	37	17.5	2602.2985366323
0	38	18	2600.4298359854
0	39	18.5	2598.5080573106
0	40	19	2596.5386160006
0	41	19.5	2594.5145886635
0	42	20	2592.4347862339
0	43	20.5	2590.3038963825
0	44	21	2588.1187586169
0	45	21.5	2585.876224402
0	46	22	2583.5771736375
0	47	22.5	2581.2272843939
0	48	23	2578.8250272302
0	49	23.5	2576.3650223406
0	50	24	2573.8493392041
0	51	24.5	2571.2797833098
0	52	25	2568.6863330575
0	53	25.5	2566.0916482897
0	54	26	2563.498984852
0	55	26.5	2560.9030062138
0	56	27	2558.3092978451
0	57	27.5	2555.7130857587
0	58	28	2553.1184064959
0	59	28.5	2550.5230329406
0	60	29	2547.9285410434
0	61	29.5	2545.3335305103
0	62	30	2542.739428506
0	63	30.5	2540.1439816806
0	64	31	2537.5483003752
0	65	31.5	2534.9544071521
0	144	32	2532.3592119595
0	145	32.5	2529.7648866439
0	146	33	2527.1705369354
0	147	33.5	2524.5772709372
0	148	34	2521.9808218135
0	149	34.5	2519.3844282731
0	150	35	2516.7892806227
0	151	35.5	2514.1939739176
0	152	36	2511.5996591776
0	153	36.5	2509.0064994983
0	154	37	2506.4130835157
0	155	37.5	2503.8182156581
0	156	38	2501.222583251
0	157	38.5	2498.628201986
0	158	39	2496.0341355706
0	159	39.5	2493.4383296432
0	160	40	2490.8435546545
0	162	40.5	2488.2493534428
0	163	41	2485.655102922
0	164	41.5	2483.0601970108
0	165	42	2480.4656198064
0	166	42.5	2477.8701654738
0	167	43	2475.2771442261
0	168	43.5	2472.6828952592
0	169	44	2470.0874233606
0	170	44.5	2467.4937271242
0	171	45	2464.8991101197
0	172	45.5	2462.3044010754
0	173	46	2459.7108201223
0	174	46.5	2457.1153178372
0	175	47	2454.51942465
0	176	47.5	2452.1049758391
0	177	48	2450.4052049746
0	178	48.5	2448.7039828986
0	179	49	2447.0023738908
0	180	49.5	2445.4085903175
0	181	50	2445.022678212
0	182	50.5	2444.6394808504
0	183	51	2444.2161111271
0	184	51.5	2443.8162894422
0	185	52	2443.4598866852
0	186	52.5	2443.1468846647
0	187	53	2442.8773015719
0	188	53.5	2442.6511374067
0	189	54	2442.4766616474
0	190	54.5	2442.4362006881
0	191	55	2442.3958884771
0	192	55.5	2442.3652781798
0	193	56	2442.3360842583
0	194	56.5	2442.3120745602
0	195	57	2442.2866568071
0	196	57.5	2442.2598584306
0	197	58	2442.2316234537
0	198	58.5	2442.2020681472
0	199	59	2442.1713431246
0	200	59.5	2442.1391856663
0	201	60	2442.088958404
0	202	60.5	2441.8653528244
0	203	61	2442.0513644307
0	204	61.5	2442.4767216791
0	205	62	2442.9179392915
0	206	62.5	2443.3737840716
0	207	63	2443.8517347983
0	208	63.5	2444.4217074605
0	209	64	2445.0086127939
0	282	64.5	2445.6133645846
0	283	65	2446.2357824997
0	284	65.5	2446.8771158312
0	285	66	2447.5357486801
0	286	66.5	2448.1992618727
0	287	67	2448.862762871
0	288	67.5	2449.5261625623
0	289	68	2450.1895460316
0	363	68.5	2450.8528824874
0	437	69	2451.515964735
0	511	69.5	2452.1788810027
0	512	70	2452.8420530326
0	513	70.5	2453.5050027478
0	514	71	2453.751541972
0	515	71.5	2453.1490988773
0	517	72	2452.5468109112
0	518	72.5	2451.9442483508
0	519	73	2451.3416938266
0	520	73.5	2450.7399062938
0	740	74	2450.1373549905
0	814	74.5	2449.5348259914
0	961	75	2448.9324109849
0	962	75.5	2448.3303403773
0	963	76	2447.728228266
0	964	76.5	2447.1253676225
0	965	77	2446.5228132036
0	1039	77.5	2445.9200862955
0	1040	78	2445.3180265242
0	1188	78.5	2444.7152224985
0	1191	79	2444.1130847682
0	1193	79.5	2443.510431627
0	1196	80	2442.9081520267
0	1197	80.5	2442.1332035309
0	1198	81	2440.7936101259
0	1199	81.5	2439.5512354538
0	1200	82	2438.899732969
0	1201	82.5	2438.3096163163
0	1202	83	2437.7200324618
0	1203	83.5	2437.1300227431
0	1204	84	2436.539951298
0	1205	84.5	2435.7126767951
0	1206	85	2429.7852410445
0	1207	85.5	2422.7686509702
0	1208	86	2415.8721814477
0	1209	86.5	2408.9791410661
0	1210	87	2402.0779896723
0	1211	87.5	2395.1774549984
0	1212	88	2388.2802261937
0	1213	88.5	2381.39078617
0	1214	89	2374.5222132367
0	1215	89.5	2367.6757823669
0	1216	90	2361.2592072034
0	1217	90.5	2356.1270752498
0	1218	91	2351.4646095863
0	1219	91.5	2347.5448177672
0	1220	92	2344.2246290718
0	1221	92.5	2341.6730156164
0	1222	93	2339.2924096435
0	1223	93.5	2336.3191095918
0	1224	94	2332.9976570519
0	1225	94.5	2329.4026071043
0	1226	95	2325.4338661636
0	1227	95.5	2321.2993844303
0	1228	96	2317.107679411
0	1229	96.5	2312.6803619494
0	1230	97	2308.44003433
0	1231	97.5	2304.7419773848
0	1232	98	2300.8849937643
0	1233	98.5	2296.8674840016
0	1234	99	2292.6851446627
0	1235	99.5	2288.3465893663
0	1236	100	2283.8483515318
0	1237	100.5	2279.1784832104
0	1238	101	2274.3255248921
0	1239	101.5	2269.3488581907
0	1240	102	2264.3394214377
0	1241	102.5	2259.3282973289
0	1242	103	2254.3205200697
0	1243	103.5	2249.313378618
0	1244	104	2244.3055711855
0	1245	104.5	2239.2996611148
0	1246	105	2234.2962788123
0	1247	105.5	2229.288373703
0	1248	106	2224.2828552717
1	2	0.5	3022.4123751242
1	4	1	3022.0353440456
1	5	1.5	3021.415566708
1	6	2	3020.5737050353
1	7	2.5	3019.5097961174
1	8	3	3018.1917037079
1	9	3.5	3016.6574269645
1	10	4	3014.916828474
1	11	4.5	3012.9631083431
1	12	5	3010.786754163
1	13	5.5	3008.3829504047
1	14	6	3005.7613130454
1	15	6.5	3002.9359130058
1	16	7	2999.8966010297
1	17	7.5	2996.6450931979
1	18	8	2993.1979513299
1	19	8.5	2989.5708009005
1	20	9	2985.7428247118
1	21	9.5	2981.7020527357
1	22	10	2977.4448199878
1	23	10.5	2972.9733398687
1	24	11	2968.2782439757
1	25	11.5	2963.345675773
1	26	12	2958.2165254327
1	27	12.5	2952.8822460799
1	28	13	2947.324840147
1	29	13.5	2941.5305228094
1	30	14	2935.5022383137
1	31	14.5	2929.2536646416
1	32	15	2922.7853528736
1	33	15.5	2916.1042734012
1	34	16	2909.1921338886
1	35	16.5	2902.0355493743
1	36	17	2894.6870059334
1	37	17.5	2887.1292580068
1	38	18	2879.3602866642
1	39	18.5	2871.3706477275
1	40	19	2863.1828552512
1	41	19.5	2854.7681257948
1	42	20	2846.1215159176
1	43	20.5	2837.262514228
1	44	21	2828.1779812351
1	45	21.5	2818.8548271619
1	46	22	2809.2967101177
1	47	22.5	2799.5272362214
1	48	23	2789.5400469452
1	49	23.5	2779.3127761837
1	50	24	2768.854027628
1	51	24.5	2758.171307452
1	52	25	2747.3892484205
1	53	25.5	2736.6020569913
1	54	26	2725.8232690776
1	55	26.5	2715.0306984866
1	56	27	2704.2475663582
1	57	27.5	2693.4540252248
1	58	28	2682.6668566819
1	59	28.5	2671.8768016752
1	60	29	2661.0903363554
1	61	29.5	2650.3012150247
1	62	30	2639.5158710303
1	63	30.5	2628.7249357523
1	64	31	2617.933025592
1	65	31.5	2607.148549634
1	144	32	2596.3586605554
1	145	32.5	2585.5723881116
1	146	33	2574.7860142523
1	147	33.5	2564.0041460712
1	148	34	2553.2090435969
1	149	34.5	2542.4141722191
1	150	35	2531.6244808035
1	151	35.5	2520.8341280958
1	152	36	2510.0478996225
1	153	36.5	2499.2664734768
1	154	37	2488.4839817137
1	155	37.5	2477.6954535758
1	156	38	2466.9037467167
1	157	38.5	2456.1172416564
1	158	39	2445.3320456278
1	159	39.5	2434.5396173326
1	160	40	2423.7514753109
1	162	40.5	2412.9657188477
1	163	41	2402.1797573743
1	164	41.5	2391.3910710234
1	165	42	2380.6031350009
1	166	42.5	2369.8111122204
1	167	43	2359.0292063234
1	168	43.5	2348.2421955122
1	169	44	2337.4500996917
1	170	44.5	2326.6653871592
1	171	45	2315.8768460304
1	172	45.5	2305.0913538206
1	173	46	2294.3107303949
1	174	46.5	2283.5221206537
1	175	47	2272.7318860656
1	176	47.5	2261.9062922131
1	177	48	2250.9511356279
1	178	48.5	2239.9866258716
1	179	49	2229.0196223091
1	180	49.5	2218.0480424091
1	181	50	2206.9662254723
1	182	50.5	2195.9623648738
1	183	51	2185.7672492983
1	184	51.5	2176.5675061094
1	185	52	2168.3668157468
1	186	52.5	2161.1647596415
1	187	53	2154.9617563616
1	188	53.5	2149.7578059072
1	189	54	2145.5507062245
1	190	54.5	2142.2868555058
1	191	55	2139.0350038158
1	192	55.5	2135.5093273697
1	193	56	2131.7345388792
1	194	56.5	2127.7155241957
1	195	57	2123.4608133426
1	196	57.5	2118.9749981649
1	197	58	2114.2487085368
1	198	58.5	2109.3014072562
1	199	59	2104.1583056375
1	200	59.5	2098.7754267631
1	201	60	2093.15354414
1	202	60.5	2087.3117893916
1	203	61	2081.2393657118
1	204	61.5	2074.9422290567
1	205	62	2068.410290055
1	206	62.5	2061.6618053745
1	207	63	2054.7280112086
1	208	63.5	2047.6005479479
1	209	64	2040.2613429669
1	282	64.5	2032.6989694415
1	283	65	2024.9156824239
1	284	65.5	2016.8958596112
1	285	66	2008.6597076971
1	286	66.5	2000.3625274682
1	287	67	1992.0654997295
1	288	67.5	1983.769738825
1	289	68	1975.4741807766
1	363	68.5	1967.1792106293
1	437	69	1958.8874193346
1	511	69.5	1950.5977036031
1	512	70	1942.3047895888
1	513	70.5	1934.0146556012
1	514	71	1925.7164624287
1	515	71.5	1917.4184819944
1	517	72	1909.1226382814
1	518	72.5	1900.8230123408
1	519	73	1892.5234970888
1	520	73.5	1884.234546287
1	740	74	1875.9350753976
1	814	74.5	1867.6359117264
1	961	75	1859.3383181756
1	962	75.5	1851.0454683341
1	963	76	1842.7520468254
1	964	76.5	1834.4483151231
1	965	77	1826.1488013212
1	1039	77.5	1817.8469116725
1	1040	78	1809.5542110885
1	1188	78.5	1801.2512592338
1	1191	79	1792.9574848516
1	1193	79.5	1784.6566112619
1	1196	80	1776.3608827796
1	1197	80.5	1768.0838922346
1	1198	81	1759.8780268263
1	1199	81.5	1751.6607330609
1	1200	82	1743.3698139209
1	1201	82.5	1735.0660295943
1	1202	83	1726.7697424972
1	1203	83.5	1718.4674628852
1	1204	84	1710.1643146928
1	1205	84.5	1702.2295241989
1	1206	85	1698.2365147918
1	1207	85.5	1697.6016853517
1	1208	86	1696.9617102724
1	1209	86.5	1696.3088281453
1	1210	87	1695.6551777748
1	1211	87.5	1695.001585817
1	1212	88	1694.3483069791
1	1213	88.5	1693.5636650212
1	1214	89	1692.6533705099
1	1215	89.5	1691.630970167
1	1216	90	1689.6793773212
1	1217	90.5	1685.0530402381
1	1218	91	1680.8500817036
1	1219	91.5	1677.316603139
1	1220	92	1674.6203257293
1	1221	92.5	1672.5616376
1	1222	93	1670.6409214176
1	1223	93.5	1669.2249955721
1	1224	94	1668.0021722484
1	1225	94.5	1666.9745002547
1	1226	95	1666.5642698202
1	1227	95.5	1666.5297237067
1	1228	96	1667.9247177588
1	1229	96.5	1669.3981233295
1	1230	97	1671.6142065562
1	1231	97.5	1675.1524139913
1	1232	98	1678.8426784519
1	1233	98.5	1682.6865302697
1	1234	99	1686.6880868608
1	1235	99.5	1690.8391069323
1	1236	100	1695.1429072218
1	1237	100.5	1699.6109192232
1	1238	101	1704.2541071065
1	1239	101.5	1709.0141057409
1	1240	102	1713.8051984264
1	1241	102.5	1718.5979049215
1	1242	103	1723.3864237554
1	1243	103.5	1728.1738054547
1	1244	104	1732.961823904
1	1245	104.5	1737.7508197613
1	1246	105	1742.5386319514
1	1247	105.5	1747.3307720842
1	1248	106	1752.1206283681
2	2	0.5	1287.3631844854
2	4	1	1287.3971152697
2	5	1.5	1287.4522898303
2	6	2	1287.5264110332
2	7	2.5	1287.62113957
2	8	3	1287.7358140606
2	9	3.5	1287.8709316116
2	10	4	1288.0250132503
2	11	4.5	1288.1995021269
2	12	5	1288.3803450145
2	13	5.5	1288.5613218796
2	14	6	1288.7420702237
2	15	6.5	1288.9232484703
2	16	7	1289.1040265976
2	17	7.5	1289.2841547827
2	18	8	1289.4648170919
2	19	8.5	1289.6461204254
2	20	9	1289.8267889973
2	21	9.5	1290.0076002722
2	22	10	1290.1889275151
2	23	10.5	1290.3695223263
2	24	11	1290.5501811963
2	25	11.5	1292.6540879257
2	26	12	1297.5639150366
2	27	12.5	1302.8378810985
2	28	13	1306.2425469026
2	29	13.5	1308.2562478072
2	30	14	1306.9227445516
2	31	14.5	1302.2154254551
2	32	15	1297.5804711034
2	33	15.5	1293.6998546909
2	34	16	1292.3351438564
2	35	16.5	1292.4916450585
2	36	17	1292.6480421006
2	37	17.5	1292.8044126967
2	38	18	1292.9607878359
2	39	18.5	1293.1163144546
2	40	19	1293.2722946536
2	41	19.5	1293.42863945
2	42	20	1293.5848936621
2	43	20.5	1293.7413971183
2	44	21	1293.8970749625
2	45	21.5	1294.0528945931
2	46	22	1294.2089592799
2	47	22.5	1294.3654001004
2	48	23	1294.5220096927
2	49	23.5	1294.6781146179
2	50	24	1294.8335943035
2	51	24.5	1294.9893859179
2	52	25	1295.1450464214
2	53	25.5	1295.3011772342
2	54	26	1295.4576196355
2	55	26.5	1295.5972772553
2	56	27	1295.7222422449
2	57	27.5	1295.8614929161
2	58	28	1296.0132666022
2	59	28.5	1296.1741153949
2	60	29	1296.3396362179
2	61	29.5	1296.5189786375
2	62	30	1296.7132164361
2	63	30.5	1296.8634114895
2	64	31	1296.9796594604
2	65	31.5	1297.0746293006
2	144	32	1297.1695770607
2	145	32.5	1297.2645506554
2	146	33	1297.359677108
2	147	33.5	1297.0053546188
2	148	34	1296.5672262392
2	149	34.5	1296.0991005796
2	150	35	1295.6436717052
2	151	35.5	1295.2007070808
2	152	36	1294.7851236622
2	153	36.5	1294.5125636539
2	154	37	1294.4019141947
2	155	37.5	1294.4444998708
2	156	38	1294.4870621768
2	157	38.5	1294.5296114372
2	158	39	1294.5974091637
2	159	39.5	1294.7275687865
2	160	40	1294.8578931703
2	162	40.5	1294.9880754326
2	163	41	1295.1181630467
2	164	41.5	1295.2483270118
2	165	42	1295.3785065116
2	166	42.5	1295.5633635888
2	167	43	1296.3890562203
2	168	43.5	1296.9281189074
2	169	44	1297.3632236316
2	170	44.5	1297.6261571537
2	171	45	1297.8244374366
2	172	45.5	1298.090879785
2	173	46	1298.4361608364
2	174	46.5	1298.9411975638
2	175	47	1299.6294862628
2	176	47.5	1300.4202688612
2	177	48	1301.2810126139
2	178	48.5	1302.2060202378
2	179	49	1306.4554387565
2	180	49.5	1307.479871987
2	181	50	1308.5871834405
2	182	50.5	1309.6923060738
2	183	51	1310.7983917224
2	184	51.5	1311.9028234141
2	185	52	1313.006744389
2	186	52.5	1314.1134096591
2	187	53	1315.2160882422
2	188	53.5	1316.3219116668
2	189	54	1317.4548332968
2	190	54.5	1318.7731161946
2	191	55	1320.0808581468
2	192	55.5	1321.3880658024
2	193	56	1322.6369496842
2	194	56.5	1323.8475046512
2	195	57	1325.0410191318
2	196	57.5	1326.2178633368
2	197	58	1327.3984415013
2	198	58.5	1328.580488653
2	199	59	1329.7583094555
2	200	59.5	1330.8109268157
2	201	60	1331.4094457534
2	202	60.5	1332.0075523928
2	203	61	1336.1744907856
2	204	61.5	1343.4164503298
2	205	62	1350.6563991281
2	206	62.5	1357.8923533631
2	207	63	1365.1282095003
2	208	63.5	1372.3881822573
2	209	64	1379.6263951102
2	282	64.5	1386.8612839555
2	283	65	1394.0992780236
2	284	65.5	1401.3384782862
2	285	66	1408.5765585736
2	286	66.5	1415.8357403666
2	287	67	1423.0714272553
2	288	67.5	1430.3186811844
2	289	68	1437.5533606398
2	363	68.5	1444.7915825465
2	437	69	1452.0375515566
2	511	69.5	1459.2902829245
2	512	70	1466.5434528759
2	513	70.5	1473.7848625788
2	514	71	1481.031117663
2	515	71.5	1488.2612899493
2	517	72	1495.4986923692
2	518	72.5	1502.7408661222
2	519	73	1509.9986161843
2	520	73.5	1517.2376443937
2	740	74	1524.4720099461
2	814	74.5	1531.71819129
2	961	75	1538.9704064446
2	962	75.5	1546.2147801785
2	963	76	1553.4538177246
2	964	76.5	1560.6760009221
2	965	77	1567.9040942923
2	1039	77.5	1575.137491592
2	1040	78	1582.3420584303
2	1188	78.5	1587.3453039613
2	1191	79	1587.7779767354
2	1193	79.5	1587.8855288679
2	1196	80	1587.9931294102
2	1197	80.5	1588.1009651484
2	1198	81	1588.2084718806
2	1199	81.5	1588.31614404
2	1200	82	1588.4239815563
2	1201	82.5	1588.5337429432
2	1202	83	1588.8369385853
2	1203	83.5	1589.1252397633
2	1204	84	1589.2773399154
2	1205	84.5	1589.4291516602
2	1206	85	1589.5812449523
2	1207	85.5	1589.7329694574
2	1208	86	1589.8844763376
2	1209	86.5	1590.0363578028
2	1210	87	1590.1882910981
2	1211	87.5	1590.4098979126
2	1212	88	1590.7251339958
2	1213	88.5	1591.1382268155
2	1214	89	1591.5505012132
2	1215	89.5	1591.9628892561
2	1216	90	1592.3752009615
2	1217	90.5	1592.7875668333
2	1218	91	1593.2001376564
2	1219	91.5	1593.6113350724
2	1220	92	1594.0251788369
2	1221	92.5	1594.4422920776
2	1222	93	1594.8590693322
2	1223	93.5	1595.2764371281
2	1224	94	1595.6933852531
2	1225	94.5	1596.1096217266
2	1226	95	1596.526844135
2	1227	95.5	1596.9449260025
2	1228	96	1597.3616517392
2	1229	96.5	1597.7413076578
2	1230	97	1598.0607184181
2	1231	97.5	1598.3058058301
2	1232	98	1598.5511826749
2	1233	98.5	1598.7967753466
2	1234	99	1599.0423456802
2	1235	99.5	1599.2876979628
2	1236	100	1599.5332750847
2	1237	100.5	1599.7791763503
2	1238	101	1600.0184236951
2	1239	101.5	1600.2026371071
2	1240	102	1600.3373361989
2	1241	102.5	1600.4594903698
2	1242	103	1600.5819684596
2	1243	103.5	1600.7042936939
2	1244	104	1600.8264384546
2	1245	104.5	1600.9487193601
2	1246	105	1601.0709040524
2	1247	105.5	1601.1641071894
2	1248	106	1601.2311282998
3	2	0.5	1828.227079195
3	4	1	1827.4147938192
3	5	1.5	1826.0939434571
3	6	2	1824.3195203077
3	7	2.5	1822.0517682778
3	8	3	1819.3065204602
3	9	3.5	1816.071876375
3	10	4	1812.3832418723
3	11	4.5	1808.2060686797
3	12	5	1803.8767837603
3	13	5.5	1799.544291487
3	14	6	1795.2172698919
3	15	6.5	1790.8799566505
3	16	7	1786.5522220582
3	17	7.5	1782.2400467461
3	18	8	1777.9150847774
3	19	8.5	1773.5747770192
3	20	9	1769.2496651299
3	21	9.5	1764.9211369995
3	22	10	1760.5802568644
3	23	10.5	1756.2569107665
3	24	11	1751.9320311304
3	25	11.5	1748.6357935062
3	26	12	1748.9207613645
3	27	12.5	1749.2960902946
3	28	13	1744.5079231691
3	29	13.5	1738.9547530329
3	30	14	1732.2668259898
3	31	14.5	1727.1903217072
3	32	15	1722.99983963
3	33	15.5	1718.9507568683
3	34	16	1714.6683898177
3	35	16.5	1710.3294051997
3	36	17	1705.9933084091
3	37	17.5	1701.6579448339
3	38	18	1697.3224553019
3	39	18.5	1693.010490939
3	40	19	1688.6859510969
3	41	19.5	1684.3513028137
3	42	20	1680.0191659778
3	43	20.5	1675.6801188635
3	44	21	1671.363961787
3	45	21.5	1667.0438736901
3	46	22	1662.7169914255
3	47	22.5	1658.3796808859
3	48	23	1654.0376911573
3	49	23.5	1649.7096932884
3	50	24	1645.3990301434
3	51	24.5	1641.0797187919
3	52	25	1636.7640424827
3	53	25.5	1632.4353268854
3	54	26	1628.0979725132
3	55	26.5	1624.2259750105
3	56	27	1620.7613296257
3	57	27.5	1616.6744660605
3	58	28	1612.0453686332
3	59	28.5	1606.8896398498
3	60	29	1601.2832893953
3	61	29.5	1595.2087880848
3	62	30	1588.6297658775
3	63	30.5	1581.530589656
3	64	31	1574.2655425621
3	65	31.5	1567.0154586174
3	144	32	1559.7670602947
3	145	32.5	1552.5166897373
3	146	33	1545.2546498692
3	147	33.5	1538.0031152302
3	148	34	1530.7733739205
3	149	34.5	1523.5534358639
3	150	35	1516.3247553399
3	151	35.5	1509.0925059915
3	152	36	1501.846289414
3	153	36.5	1494.5961931935
3	154	37	1487.3409345467
3	155	37.5	1480.0942719905
3	156	38	1472.851586258
3	157	38.5	1465.6111204317
3	158	39	1458.3558320208
3	159	39.5	1451.1042794175
3	160	40	1443.8435475258
3	162	40.5	1436.5907336148
3	163	41	1429.3431928195
3	164	41.5	1422.0913982913
3	165	42	1414.8387382878
3	166	42.5	1407.595704902
3	167	43	1400.7349858135
3	168	43.5	1394.9460962126
3	169	44	1390.2735910024
3	170	44.5	1386.7135161944
3	171	45	1383.2086206041
3	172	45.5	1379.1482868316
3	173	46	1374.6234036069
3	174	46.5	1369.6693310766
3	175	47	1364.2835673774
3	176	47.5	1358.4462845782
3	177	48	1352.1681404524
3	178	48.5	1345.4212646699
3	179	49	1338.7021733411
3	180	49.5	1331.5336601986
3	181	50	1324.3572842069
3	182	50.5	1317.1950937416
3	183	51	1310.0266620703
3	184	51.5	1302.8689495297
3	185	52	1295.7145468947
3	186	52.5	1288.5423587523
3	187	53	1281.3960079355
3	188	53.5	1274.2292757118
3	189	54	1267.0766042247
3	190	54.5	1259.9630619744
3	191	55	1252.8548516864
3	192	55.5	1245.7495455584
3	193	56	1238.6269551748
3	194	56.5	1231.5193399116
3	195	57	1224.386536085
3	196	57.5	1217.2831780165
3	197	58	1210.1572820013
3	198	58.5	1203.0225192718
3	199	59	1195.9132665219
3	200	59.5	1188.7771325214
3	201	60	1181.5869250158
3	202	60.5	1174.4016705891
3	203	61	1170.008220369
3	204	61.5	1170.374673482
3	205	62	1170.7601827504
3	206	62.5	1170.9340754179
3	207	63	1170.9734676257
3	208	63.5	1171.0129911248
3	209	64	1171.0523961624
3	282	64.5	1171.0917831045
3	283	65	1171.131186951
3	284	65.5	1171.1705973642
3	285	66	1171.2100016801
3	286	66.5	1171.2972164741
3	287	67	1171.4328529984
3	288	67.5	1171.5009855609
3	289	68	1171.5199146019
3	363	68.5	1171.5388529105
3	437	69	1171.5177570311
3	511	69.5	1171.4805782028
3	512	70	1171.4433971271
3	513	70.5	1171.4062763359
3	514	71	1171.2589158835
3	515	71.5	1171.0261147637
3	517	72	1170.7930808431
3	518	72.5	1170.5598932933
3	519	73	1170.3262042087
3	520	73.5	1170.0931179402
3	740	74	1169.8601818038
3	814	74.5	1169.6268652147
3	961	75	1169.3206358878
3	962	75.5	1168.866070888
3	963	76	1168.4118407201
3	964	76.5	1167.8725070758
3	965	77	1167.3215934001
3	1039	77.5	1166.7702754671
3	1040	78	1166.0935406061
3	1188	78.5	1161.5683879014
3	1191	79	1154.3423471684
3	1193	79.5	1147.0996291693
3	1196	80	1139.8536511892
3	1197	80.5	1132.5918347677
3	1198	81	1125.3521740912
3	1199	81.5	1118.1013733102
3	1200	82	1110.8394371495
3	1201	82.5	1103.6105565652
3	1202	83	1096.3652262213
3	1203	83.5	1089.1128268093
3	1204	84	1081.8552893801
3	1205	84.5	1074.6115134563
3	1206	85	1067.3543033525
3	1207	85.5	1060.1146901157
3	1208	86	1052.8854609597
3	1209	86.5	1045.6383582922
3	1210	87	1038.3887825208
3	1211	87.5	1031.1460986752
3	1212	88	1023.8992039757
3	1213	88.5	1016.6613746099
3	1214	89	1009.4378848756
3	1215	89.5	1002.2124039559
3	1216	90	994.98826054949
3	1217	90.5	987.76316809002
3	1218	91	980.53448466584
3	1219	91.5	973.3009323366
3	1220	92	966.06413901038
3	1221	92.5	958.82827536669
3	1222	93	951.5982402321
3	1223	93.5	944.35796069633
3	1224	94	937.12496139389
3	1225	94.5	929.90430745017
3	1226	95	922.66655001976
3	1227	95.5	915.41388314031
3	1228	96	908.18474171218
3	1229	96.5	900.94451775216
3	1230	97	893.69341683853
3	1231	97.5	886.46022794209
3	1232	98	879.21849709563
3	1233	98.5	871.97039662395
3	1234	99	864.72295541037
3	1235	99.5	857.48194946442
3	1236	100	850.23430790752
3	1237	100.5	842.97709999513
3	1238	101	835.73303169571
3	1239	101.5	828.46427748352
3	1240	102	821.22452793829
3	1241	102.5	813.98902391084
3	1242	103	806.7343333317
3	1243	103.5	799.48869678006
3	1244	104	792.25375014544
3	1245	104.5	785.0107393004
3	1246	105	777.77342741005
3	1247	105.5	770.51929793227
3	1248	106	763.26567549352
4	2	0.5	243.31602054439
4	4	1	243.30913937406
4	5	1.5	243.29782204749
4	6	2	243.28247408115
4	7	2.5	243.26342766208
4	8	3	243.24040584138
4	9	3.5	243.21380397596
4	10	4	243.18310993013
4	11	4.5	243.1484340321
4	12	5	243.10924115102
4	13	5.5	243.0663145869
4	14	6	243.01953350392
4	15	6.5	242.96903013124
4	16	7	242.91449734592
4	17	7.5	242.85595049639
4	18	8	242.79419269238
4	19	8.5	242.73295519606
4	20	9	242.26508669544
4	21	9.5	241.68610673898
4	22	10	241.10712287819
4	23	10.5	240.52771094977
4	24	11	239.94936719164
4	25	11.5	239.37215495552
4	26	12	238.79357286438
4	27	12.5	238.21557328652
4	28	13	237.63733651803
4	29	13.5	237.05823889328
4	30	14	236.48010755552
4	31	14.5	235.90121453989
4	32	15	235.80409846641
4	33	15.5	235.0742950117
4	34	16	232.5949971755
4	35	16.5	230.11229897349
4	36	17	227.62779660232
4	37	17.5	225.14764125971
4	38	18	222.66813646222
4	39	18.5	220.19162743364
4	40	19	217.70837988122
4	41	19.5	215.22731687815
4	42	20	212.75282488286
4	43	20.5	210.27264811459
4	44	21	207.79659313092
4	45	21.5	205.31452671322
4	46	22	202.83089691552
4	47	22.5	200.3480367423
4	48	23	197.87148526474
4	49	23.5	195.38814299658
4	50	24	192.90354517207
4	51	24.5	190.41885485034
4	52	25	187.93716550677
4	53	25.5	185.45432597469
4	54	26	182.97469523118
4	55	26.5	180.49361961486
4	56	27	179.61417745787
4	57	27.5	178.8559691062
4	58	28	178.09591954772
4	59	28.5	177.33738778485
4	60	29	176.57814397954
4	61	29.5	175.81934606808
4	62	30	175.05880281387
4	63	30.5	174.29889175657
4	64	31	173.54065930506
4	65	31.5	172.78142890846
4	144	32	172.02238947642
4	145	32.5	171.26402847329
4	146	33	170.50400739827
4	147	33.5	169.79079523124
4	148	34	169.44349024096
4	149	34.5	169.49539697205
4	150	35	169.59012659499
4	151	35.5	169.6847860238
4	152	36	169.7796467169
4	153	36.5	169.87425518362
4	154	37	170.12243900937
4	155	37.5	170.40556825069
4	156	38	170.68902704504
4	157	38.5	170.97228521679
4	158	39	171.25559044897
4	159	39.5	171.5390419754
4	160	40	171.82247454638
4	162	40.5	172.10592645709
4	163	41	172.38946074515
4	164	41.5	172.6729433944
4	165	42	172.95657042495
4	166	42.5	173.23988411739
4	167	43	173.61277161411
4	168	43.5	174.14280516421
4	169	44	174.67226522055
4	170	44.5	176.09652246546
4	171	45	178.58705503435
4	172	45.5	181.07482282538
4	173	46	183.56480070169
4	174	46.5	186.05373565783
4	175	47	188.58123323927
4	176	47.5	191.17984637397
4	177	48	193.77774498193
4	178	48.5	196.67387435597
4	179	49	200.19107397192
4	180	49.5	203.72778743366
4	181	50	207.26647331018
4	182	50.5	210.79940940742
4	183	51	214.33261358016
4	184	51.5	217.86818029277
4	185	52	221.40024221234
4	186	52.5	224.93759651517
4	187	53	228.4735406317
4	188	53.5	232.01025300391
4	189	54	235.5882561797
4	190	54.5	239.87695087795
4	191	55	244.16687112593
4	192	55.5	248.46016390785
4	193	56	252.75870260666
4	194	56.5	257.05186138733
4	195	57	261.35513759439
4	196	57.5	265.64738122816
4	197	58	269.9436453149
4	198	58.5	274.23756451625
4	199	59	278.52956969908
4	200	59.5	282.82938435557
4	201	60	287.12722960976
4	202	60.5	291.42781023402
4	203	61	295.66003877192
4	204	61.5	299.59344093536
4	205	62	303.53082128626
4	206	62.5	307.46605655144
4	207	63	311.39996498288
4	208	63.5	315.34040090628
4	209	64	319.27257643803
4	282	64.5	323.20724542509
4	283	65	327.14609402395
4	284	65.5	331.08839822107
4	285	66	335.02932583459
4	286	66.5	338.97178067884
4	287	67	342.91035109595
4	288	67.5	346.84438368573
4	289	68	350.78055117372
4	363	68.5	354.71536925121
4	437	69	358.64867783256
4	511	69.5	362.36900405621
4	512	70	365.25437051244
4	513	70.5	368.09528447106
4	514	71	370.93264405918
4	515	71.5	373.77346710279
4	517	72	376.61451679771
4	518	72.5	379.45626523183
4	519	73	382.31811501482
4	520	73.5	385.22572085948
4	740	74	388.12859525275
4	814	74.5	391.0330289033
4	961	75	393.93720605224
4	962	75.5	396.83672892116
4	963	76	399.73664336978
4	964	76.5	402.63857411477
4	965	77	405.53953959781
4	1039	77.5	408.44239268859
4	1040	78	411.31388247979
4	1188	78.5	413.87904759729
4	1191	79	416.44662422128
4	1193	79.5	419.01498787128
4	1196	80	421.58601920749
4	1197	80.5	424.14927800675
4	1198	81	426.71107895928
4	1199	81.5	429.27798181539
4	1200	82	431.85273255326
4	1201	82.5	434.42591446557
4	1202	83	436.98915796517
4	1203	83.5	439.56096183648
4	1204	84	442.13536795322
4	1205	84.5	444.70284084335
4	1206	85	447.2735916425
4	1207	85.5	449.84630617965
4	1208	86	452.41456722678
4	1209	86.5	454.96546912193
4	1210	87	457.23346867808
4	1211	87.5	459.13970108842
4	1212	88	460.68416635308
4	1213	88.5	461.8704556264
4	1214	89	463.04057686415
4	1215	89.5	464.38582212175
4	1216	90	465.87636700878
4	1217	90.5	467.52315292042
4	1218	91	469.35439355229
4	1219	91.5	471.38329231215
4	1220	92	473.56536231539
4	1221	92.5	475.89645045588
4	1222	93	478.37164703547
4	1223	93.5	480.96900524956
4	1224	94	483.57290441601
4	1225	94.5	486.17500823992
4	1226	95	488.7767500534
4	1227	95.5	491.38573053433
4	1228	96	493.98852019408
4	1229	96.5	496.59493001678
4	1230	97	499.19498920976
4	1231	97.5	503.87098802021
4	1232	98	510.78796516941
4	1233	98.5	517.67428889312
4	1234	99	524.74739618099
4	1235	99.5	532.0787677021
4	1236	100	539.47171983786
4	1237	100.5	546.87414557685
4	1238	101	554.2698460276
4	1239	101.5	561.65758864011
4	1240	102	569.06169613649
4	1241	102.5	576.44648235722
4	1242	103	583.82170377998
4	1243	103.5	590.99384639901
4	1244	104	598.15700204647
4	1245	104.5	605.32897281321
4	1246	105	612.94757107459
4	1247	105.5	620.78178411338
4	1248	106	628.61568430858
5	2	0.5	2497.1688996973
5	4	1	2496.3316489356
5	5	1.5	2494.9546389403
5	6	2	2493.0872100228
5	7	2.5	2490.7697802708
5	8	3	2487.9686525557
5	9	3.5	2484.7319310447
5	10	4	2480.9973027781
5	11	4.5	2476.7781916922
5	12	5	2472.0094869528
5	13	5.5	2466.7864948306
5	14	6	2461.0945128687
5	15	6.5	2454.9496297827
5	16	7	2448.3144770721
5	17	7.5	2441.1909222081
5	18	8	2433.5380245307
5	19	8.5	2425.5499333367
5	20	9	2417.5871251784
5	21	9.5	2409.6034747697
5	22	10	2401.6197705222
5	23	10.5	2393.6301635792
5	24	11	2385.6552858138
5	25	11.5	2377.6960107926
5	26	12	2369.7178466134
5	27	12.5	2361.7477148054
5	28	13	2353.7743123379
5	29	13.5	2345.7890393818
5	30	14	2337.8170907153
5	31	14.5	2329.834639146
5	32	15	2321.8400533656
5	33	15.5	2313.9513235185
5	34	16	2306.358641657
5	35	16.5	2298.7555464059
5	36	17	2291.1469260082
5	37	17.5	2283.5516180908
5	38	18	2275.9583024252
5	39	18.5	2268.3741610982
5	40	19	2260.7693834985
5	41	19.5	2253.1712959325
5	42	20	2245.5933316341
5	43	20.5	2237.9979581023
5	44	21	2230.4152072575
5	45	21.5	2222.814046802
5	46	22	2215.2080986015
5	47	22.5	2207.6045073243
5	48	23	2200.0202360004
5	49	23.5	2192.4151683394
5	50	24	2184.8062556228
5	51	24.5	2177.1970596397
5	52	25	2169.5970539479
5	53	25.5	2161.9935258832
5	54	26	2154.399824515
5	55	26.5	2146.8016983224
5	56	27	2138.8746753475
5	57	27.5	2130.9304732559
5	58	28	2122.9669797411
5	59	28.5	2115.019389079
5	60	29	2107.0643379204
5	61	29.5	2099.1139586596
5	62	30	2091.1452923995
5	63	30.5	2083.1832500445
5	64	31	2075.2387954444
5	65	31.5	2067.2838847786
5	144	32	2059.3309749616
5	145	32.5	2051.3851734512
5	146	33	2043.4219783731
5	147	33.5	2035.4573568702
5	148	34	2027.4610729283
5	149	34.5	2019.4810722796
5	150	35	2011.4843132757
5	151	35.5	2003.4934798256
5	152	36	1995.4856563201
5	153	36.5	1987.4991249219
5	154	37	1979.6536396155
5	155	37.5	1971.6674700528
5	156	38	1963.6720048534
5	157	38.5	1955.6821985766
5	158	39	1947.6910648718
5	159	39.5	1939.6958046798
5	160	40	1931.7010791581
5	162	40.5	1923.7058081245
5	163	41	1915.7082134867
5	164	41.5	1907.7120754188
5	165	42	1899.7118648142
5	166	42.5	1891.7204924747
5	167	43	1883.7359081525
5	168	43.5	1875.7509871386
5	169	44	1867.7747057695
5	170	44.5	1859.9732490843
5	171	45	1852.3763415627
5	172	45.5	1844.7878674828
5	173	46	1837.1926519489
5	174	46.5	1829.6006176481
5	175	47	1822.0174402529
5	176	47.5	1814.4555595871
5	177	48	1806.8957581716
5	178	48.5	1799.471004121
5	179	49	1792.3053684356
5	180	49.5	1785.131542041
5	181	50	1777.9537148234
5	182	50.5	1770.7875503879
5	183	51	1763.6208421923
5	184	51.5	1756.4493418494
5	185	52	1749.2849505851
5	186	52.5	1742.1098243156
5	187	53	1734.9375584517
5	188	53.5	1727.7637342662
5	189	54	1720.6248370688
5	190	54.5	1713.8965561865
5	191	55	1707.166352611
5	192	55.5	1700.4308580654
5	193	56	1693.6871335097
5	194	56.5	1686.9518491905
5	195	57	1680.2006922364
5	196	57.5	1673.4668436376
5	197	58	1666.7266875869
5	198	58.5	1659.9902102891
5	199	59	1653.2567357821
5	200	59.5	1646.511009451
5	201	60	1639.7683727993
5	202	60.5	1633.0214447873
5	203	61	1626.2429542998
5	204	61.5	1619.292198956
5	205	62	1612.3344137166
5	206	62.5	1605.3787845438
5	207	63	1598.4238969414
5	208	63.5	1591.4574691672
5	209	64	1584.5056452155
5	282	64.5	1577.5494130002
5	283	65	1570.5857915115
5	284	65.5	1563.6160607543
5	285	66	1556.648763706
5	286	66.5	1549.6787666157
5	287	67	1542.7156369323
5	288	67.5	1535.7605298255
5	289	68	1528.8016483616
5	363	68.5	1521.8451525643
5	437	69	1514.8913254561
5	511	69.5	1507.8183834413
5	512	70	1500.3619085737
5	513	70.5	1492.8893472515
5	514	71	1485.4261351209
5	515	71.5	1477.9538129363
5	517	72	1470.4808945814
5	518	72.5	1463.006138307
5	519	73	1455.5258132825
5	520	73.5	1448.0641734777
5	740	74	1440.6146757547
5	814	74.5	1433.1611765902
5	961	75	1425.7083356725
5	962	75.5	1418.2674387945
5	963	76	1410.8255370259
5	964	76.5	1403.378460939
5	965	77	1395.9338619541
5	1039	77.5	1388.4844188988
5	1040	78	1381.0295603536
5	1188	78.5	1373.4624798596
5	1191	79	1365.8882855698
5	1193	79.5	1358.311769601
5	1196	80	1350.7351713758
5	1197	80.5	1343.1690609725
5	1198	81	1335.6035017204
5	1199	81.5	1328.0418283259
5	1200	82	1320.4552476536
5	1201	82.5	1312.873289573
5	1202	83	1305.3206153251
5	1203	83.5	1297.7453564825
5	1204	84	1290.1640345324
5	1205	84.5	1282.603276195
5	1206	85	1275.0336746685
5	1207	85.5	1267.4582908954
5	1208	86	1259.8960204693
5	1209	86.5	1252.384864239
5	1210	87	1245.7067167861
5	1211	87.5	1240.093796324
5	1212	88	1235.5461028526
5	1213	88.5	1232.0640323134
5	1214	89	1228.6392872278
5	1215	89.5	1224.6298702713
5	1216	90	1220.1121715521
5	1217	90.5	1215.1144872913
5	1218	91	1209.6670731781
5	1219	91.5	1203.80311397
5	1220	92	1197.4682601057
5	1221	92.5	1190.700785785
5	1222	93	1183.5149445459
5	1223	93.5	1175.9744510269
5	1224	94	1168.4149682093
5	1225	94.5	1160.8606975218
5	1226	95	1153.307477802
5	1227	95.5	1145.7332432196
5	1228	96	1138.1769814547
5	1229	96.5	1130.6102098515
5	1230	97	1123.0618750136
5	1231	97.5	1118.2538863569
5	1232	98	1122.2492650589
5	1233	98.5	1126.3150561899
5	1234	99	1130.0483494019
5	1235	99.5	1133.1950568007
5	1236	100	1136.2469244581
5	1237	100.5	1139.3027028916
5	1238	101	1142.355705074
5	1239	101.5	1145.4054222004
5	1240	102	1148.4618948763
5	1241	102.5	1151.5103915809
5	1242	103	1154.5549398633
5	1243	103.5	1158.0686001722
5	1244	104	1161.6146777757
5	1245	104.5	1165.1483644247
5	1246	105	1167.4954979662
5	1247	105.5	1169.0617811866
5	1248	106	1170.6280018613
6	2	0.5	1630.0247913966
6	4	1	1630.0082108838
6	5	1.5	1629.9812774651
6	6	2	1629.8417228467
6	7	2.5	1629.598968075
6	8	3	1629.3054750046
6	9	3.5	1628.9658557308
6	10	4	1628.5728588598
6	11	4.5	1628.1282675097
6	12	5	1627.6355270261
6	13	5.5	1627.0910144426
6	14	6	1626.4940830157
6	15	6.5	1625.8345458684
6	16	7	1625.0961785339
6	17	7.5	1624.322276724
6	18	8	1623.6989221299
6	19	8.5	1623.0772683261
6	20	9	1622.4546982928
6	21	9.5	1621.8158716178
6	22	10	1621.1479699811
6	23	10.5	1620.4805658566
6	24	11	1619.8128705663
6	25	11.5	1619.1453593093
6	26	12	1618.477649382
6	27	12.5	1617.8102521775
6	28	13	1617.1432332682
6	29	13.5	1616.4748463017
6	30	14	1615.5620805648
6	31	14.5	1614.8538707139
6	32	15	1614.1444828574
6	33	15.5	1613.4359561502
6	34	16	1612.7275783645
6	35	16.5	1612.0191638161
6	36	17	1611.3111493622
6	37	17.5	1610.6013700862
6	38	18	1609.9844655549
6	39	18.5	1609.3916057335
6	40	19	1608.7978704775
6	41	19.5	1608.2024692262
6	42	20	1607.5996517522
6	43	20.5	1606.9399328879
6	44	21	1606.2808350986
6	45	21.5	1605.6199371605
6	46	22	1604.9601680936
6	47	22.5	1604.3006430242
6	48	23	1603.6409381006
6	49	23.5	1602.9812482408
6	50	24	1602.3200556216
6	51	24.5	1601.6594453757
6	52	25	1600.9992167008
6	53	25.5	1600.3514186537
6	54	26	1599.7119629709
6	55	26.5	1599.074586045
6	56	27	1598.4685066192
6	57	27.5	1598.2871992715
6	58	28	1600.1327301846
6	59	28.5	1604.5245775143
6	60	29	1608.8714928426
6	61	29.5	1613.2086702916
6	62	30	1617.5543518139
6	63	30.5	1621.8981999634
6	64	31	1626.2505997774
6	65	31.5	1630.5994169144
6	144	32	1634.9475009422
6	145	32.5	1639.3068751593
6	146	33	1643.6594599589
6	147	33.5	1648.0111841358
6	148	34	1652.3707087236
6	149	34.5	1656.7378211758
6	150	35	1661.1153184619
6	151	35.5	1665.4786211952
6	152	36	1669.8497660584
6	153	36.5	1674.2195324327
6	154	37	1678.5747012508
6	155	37.5	1682.9394769202
6	156	38	1687.2844451248
6	157	38.5	1691.6535222295
6	158	39	1696.007967332
6	159	39.5	1700.3603826565
6	160	40	1704.7219716228
6	162	40.5	1709.0685501357
6	163	41	1713.421631285
6	164	41.5	1717.772810848
6	165	42	1722.1196195115
6	166	42.5	1726.4788973695
6	167	43	1730.8314410215
6	168	43.5	1735.1881622528
6	169	44	1739.5504760824
6	170	44.5	1743.9007958359
6	171	45	1748.2549870936
6	172	45.5	1752.6101947357
6	173	46	1756.9728058497
6	174	46.5	1761.3346374495
6	175	47	1765.6900989362
6	176	47.5	1770.0566241341
6	177	48	1774.41547178
6	178	48.5	1778.7760363325
6	179	49	1783.1222143166
6	180	49.5	1787.4824368078
6	181	50	1791.8482998944
6	182	50.5	1796.1887652293
6	183	51	1800.5258676313
6	184	51.5	1804.8860753857
6	185	52	1809.2343602234
6	186	52.5	1813.5937689443
6	187	53	1817.9450976856
6	188	53.5	1822.3073966277
6	189	54	1826.6539629906
6	190	54.5	1830.9981052334
6	191	55	1835.3537803019
6	192	55.5	1839.7118837045
6	193	56	1844.065977226
6	194	56.5	1848.4172813307
6	195	57	1852.7685238142
6	196	57.5	1857.1245474649
6	197	58	1861.4775959136
6	198	58.5	1865.8314805964
6	199	59	1870.1833637168
6	200	59.5	1874.4006811352
6	201	60	1877.8581749013
6	202	60.5	1881.7474716639
6	203	61	1886.0634982631
6	204	61.5	1890.440647183
6	205	62	1894.7923598661
6	206	62.5	1899.1637865725
6	207	63	1903.5218174245
6	208	63.5	1907.8794477829
6	209	64	1912.2461129271
6	282	64.5	1916.6044484593
6	283	65	1920.9571130626
6	284	65.5	1925.1996808833
6	285	66	1929.5593684167
6	286	66.5	1933.9107909766
6	287	67	1938.2639543132
6	288	67.5	1942.6266056013
6	289	68	1946.9707487051
6	363	68.5	1951.3157593348
6	437	69	1955.6733094592
6	511	69.5	1960.0258806145
6	512	70	1963.988371341
6	513	70.5	1967.271371744
6	514	71	1971.1146937864
6	515	71.5	1975.4264215742
6	517	72	1979.7885677466
6	518	72.5	1984.1448536554
6	519	73	1988.5080524788
6	520	73.5	1992.8635246024
6	740	74	1997.2101879908
6	814	74.5	2001.5567318412
6	961	75	2005.9198299769
6	962	75.5	2010.2616626488
6	963	76	2014.6048769309
6	964	76.5	2018.9551789366
6	965	77	2023.3116549015
6	1039	77.5	2027.661583852
6	1040	78	2032.0213878695
6	1188	78.5	2036.3931111828
6	1191	79	2040.7503939257
6	1193	79.5	2045.0976084373
6	1196	80	2049.4575449938
6	1197	80.5	2053.7955195272
6	1198	81	2058.1582450452
6	1199	81.5	2062.056940352
6	1200	82	2061.7801062294
6	1201	82.5	2061.4370895101
6	1202	83	2061.0931859596
6	1203	83.5	2060.7487941309
6	1204	84	2060.4052429899
6	1205	84.5	2060.0634153135
6	1206	85	2059.7201837512
6	1207	85.5	2059.3782502438
6	1208	86	2059.0360925806
6	1209	86.5	2058.6926551139
6	1210	87	2058.3495369698
6	1211	87.5	2058.0073966039
6	1212	88	2057.6640050008
6	1213	88.5	2057.3217827502
6	1214	89	2056.9781080806
6	1215	89.5	2056.6349150295
6	1216	90	2056.2933472292
6	1217	90.5	2055.9508191892
6	1218	91	2055.6081224538
6	1219	91.5	2055.2638705531
6	1220	92	2054.9205035403
6	1221	92.5	2054.5781196121
6	1222	93	2054.234769439
6	1223	93.5	2053.8922471347
6	1224	94	2053.5492995267
6	1225	94.5	2053.2068637755
6	1226	95	2052.8636471422
6	1227	95.5	2052.5207435775
6	1228	96	2052.1785843546
6	1229	96.5	2051.8355037851
6	1230	97	2051.4923401346
6	1231	97.5	2051.1488415605
6	1232	98	2050.8060174736
6	1233	98.5	2050.4616009442
6	1234	99	2050.1196304383
6	1235	99.5	2049.7748191546
6	1236	100	2049.4330479936
6	1237	100.5	2049.090636323
6	1238	101	2048.7477756736
6	1239	101.5	2048.8186060826
6	1240	102	2048.9118752652
6	1241	102.5	2049.005229435
6	1242	103	2049.098863462
6	1243	103.5	2049.1922907309
6	1244	104	2049.2858821505
6	1245	104.5	2049.3795851922
6	1246	105	2049.4731499439
6	1247	105.5	2049.5670584716
6	1248	106	2049.6607877562
7	2	0.5	360.29248770513
7	4	1	361.13602129091
7	5	1.5	362.5062589664
7	6	2	364.3352372963
7	7	2.5	366.71067855973
7	8	3	369.58261201344
7	9	3.5	372.90590667538
7	10	4	376.75151999667
7	11	4.5	381.10200353526
7	12	5	385.9236433683
7	13	5.5	391.25189150218
7	14	6	397.09307655133
7	15	6.5	403.44417801127
7	16	7	410.23715748917
7	17	7.5	417.44994158298
7	18	8	424.71971334238
7	19	8.5	431.96964991186
7	20	9	439.23027185909
7	21	9.5	446.49580528866
7	22	10	453.75826318469
7	23	10.5	461.01531136036
7	24	11	468.27552554011
7	25	11.5	475.5337386271
7	26	12	482.7941119615
7	27	12.5	490.05108489189
7	28	13	497.30394441355
7	29	13.5	504.57167956606
7	30	14	511.7895232439
7	31	14.5	519.03953384049
7	32	15	526.30160379037
7	33	15.5	533.55485807359
7	34	16	540.80658783298
7	35	16.5	548.05869393703
7	36	17	555.30670423526
7	37	17.5	562.57278118469
7	38	18	569.83576083463
7	39	18.5	577.08640474733
7	40	19	584.34775517788
7	41	19.5	591.61120824516
7	42	20	598.88374377042
7	43	20.5	606.13970067352
7	44	21	613.38882664684
7	45	21.5	620.65775166359
7	46	22	627.91426072363
7	47	22.5	635.16808616463
7	48	23	642.42388973851
7	49	23.5	649.67952763475
7	50	24	656.95169372018
7	51	24.5	664.21745453775
7	52	25	671.47901862208
7	53	25.5	678.73389636446
7	54	26	685.99258249253
7	55	26.5	693.2482074732
7	56	27	700.15127387363
7	57	27.5	706.0995322438
7	58	28	711.40140250884
7	59	28.5	713.50090264063
7	60	29	713.69153064582
7	61	29.5	713.86569899227
7	62	30	714.04020883795
7	63	30.5	714.21464506071
7	64	31	714.38942469377
7	65	31.5	714.56406045612
7	144	32	714.73866677936
7	145	32.5	714.91372648347
7	146	33	715.08851354383
7	147	33.5	715.26326604467
7	148	34	715.43833178747
7	149	34.5	715.61370223667
7	150	35	715.78948970977
7	151	35.5	715.96470717154
7	152	36	716.1402395498
7	153	36.5	716.31571657304
7	154	37	716.49060740042
7	155	37.5	716.66588401143
7	156	38	716.84036521148
7	157	38.5	717.01581455581
7	158	39	717.19067632034
7	159	39.5	717.36545657553
7	160	40	717.54060521815
7	162	40.5	717.71515108366
7	163	41	717.88995807711
7	164	41.5	718.0646887077
7	165	42	718.23924381565
7	166	42.5	718.41429965012
7	167	43	718.58908505924
7	168	43.5	718.76403822657
7	169	44	718.93921597674
7	170	44.5	719.15372188389
7	171	45	719.36859831586
7	172	45.5	719.58352490515
7	173	46	719.79881685134
7	174	46.5	720.01407032926
7	175	47	720.22900944576
7	176	47.5	720.44449454919
7	177	48	720.65960077103
7	178	48.5	720.87479172088
7	179	49	721.08927270304
7	180	49.5	721.30444677174
7	181	50	721.51989920065
7	182	50.5	721.73409826774
7	183	51	721.94818563107
7	184	51.5	722.16349143907
7	185	52	722.37820849568
7	186	52.5	722.59347484726
7	187	53	722.80834221188
7	188	53.5	723.0237512812
7	189	54	723.23838348035
7	190	54.5	723.45289597753
7	191	55	723.66797796264
7	192	55.5	723.8831798574
7	193	56	724.09818374552
7	194	56.5	724.31304989383
7	195	57	724.52791299857
7	196	57.5	724.74301219638
7	197	58	724.95796447899
7	198	58.5	725.17295805458
7	199	59	725.38785279449
7	200	59.5	725.59610271826
7	201	60	725.76683276799
7	202	60.5	725.94830236491
7	203	61	726.10342382826
7	204	61.5	726.26039742585
7	205	62	726.34416091442
7	206	62.5	726.42830386665
7	207	63	726.51218897011
7	208	63.5	726.59606636502
7	209	64	726.68011766486
7	282	64.5	726.76400863286
7	283	65	726.84779044427
7	284	65.5	726.95245877374
7	285	66	727.08402530476
7	286	66.5	727.2153424155
7	287	67	727.34671206027
7	288	67.5	727.47836803179
7	289	68	727.60946546309
7	363	68.5	727.74058907479
7	437	69	727.87209110335
7	511	69.5	728.00344287697
7	512	70	728.10784678347
7	513	70.5	728.18306377344
7	514	71	728.29019937292
7	515	71.5	728.4348275587
7	517	72	728.59292192478
7	518	72.5	728.79428598657
7	519	73	728.9959695898
7	520	73.5	729.19729603548
7	740	74	729.39821530785
7	814	74.5	729.59912905563
7	961	75	729.8008080041
7	962	75.5	730.00150398258
7	963	76	730.20226382464
7	964	76.5	730.40335128829
7	965	77	730.60472413525
7	1039	77.5	730.80579435453
7	1040	78	731.00732103642
7	1188	78.5	731.20939867385
7	1191	79	731.41080881283
7	1193	79.5	731.6117535606
7	1196	80	731.81328636967
7	1197	80.5	732.01380401012
7	1198	81	732.21560846176
7	1199	81.5	733.33399402536
7	1200	82	737.67584560253
7	1201	82.5	742.02184925787
7	1202	83	746.37908902019
7	1203	83.5	750.7425152408
7	1204	84	755.09528999124
7	1205	84.5	759.42622853909
7	1206	85	763.77495424543
7	1207	85.5	768.10723366402
7	1208	86	772.44235312659
7	1209	86.5	776.79368763044
7	1210	87	781.14097633492
7	1211	87.5	785.47587664053
7	1212	88	789.82663005404
7	1213	88.5	794.16256783623
7	1214	89	798.51690768916
7	1215	89.5	802.86514545977
7	1216	90	807.19279138837
7	1217	90.5	811.532603506
7	1218	91	815.87455298379
7	1219	91.5	820.23620632384
7	1220	92	824.58664818015
7	1221	92.5	828.92463440914
7	1222	93	833.27486290783
7	1223	93.5	837.61460235156
7	1224	94	841.95973037183
7	1225	94.5	846.29837319534
7	1226	95	850.64690975193
7	1227	95.5	854.99147974607
7	1228	96	859.32661896851
7	1229	96.5	863.6734316051
7	1230	97	868.02129687276
7	1231	97.5	872.37340560369
7	1232	98	876.71696861833
7	1233	98.5	881.08070779592
7	1234	99	885.41345598362
7	1235	99.5	889.78219667636
7	1236	100	894.11241917685
7	1237	100.5	898.45075689815
7	1238	101	902.79478315637
7	1239	101.5	907.14518479817
7	1240	102	911.48746698163
7	1241	102.5	915.83370587695
7	1242	103	920.19297391921
7	1243	103.5	924.54261604231
7	1244	104	928.89990044385
7	1245	104.5	933.26238156855
7	1246	105	937.61842440348
7	1247	105.5	941.99047223013
7	1248	106	946.35417513177
8	4	1	0.96315724250003
8	5	1.5	1.4163082134939
8	6	2	1.8730117260368
8	7	2.5	2.3571391038766
8	8	3	2.8579845126981
8	9	3.5	3.226170594006
8	10	4	3.6683751018142
8	11	4.5	4.096395278115
8	12	5	4.5673459860759
8	13	5.5	5.0041966364236
8	14	6	5.4528541425599
8	15	6.5	5.8326756184112
8	16	7	6.3185249040166
8	17	7.5	6.8164614663955
8	18	8	7.2483342648793
8	19	8.5	7.6306189449347
8	20	9	8.0300661469979
8	21	9.5	8.4971491859045
8	22	10	8.9360353771627
8	23	10.5	9.3978944510204
8	24	11	9.8634379853105
8	25	11.5	10.317759716001
8	26	12	10.714327577011
8	27	12.5	11.151482744485
8	28	13	11.636657540172
8	29	13.5	12.128458942918
8	30	14	12.574270750012
8	31	14.5	13.063242460064
8	32	15	13.48613080303
8	33	15.5	13.890868600824
8	34	16	14.428135147968
8	35	16.5	14.888480121305
8	36	17	15.285900480401
8	37	17.5	15.704661329704
8	38	18	16.182874826592
8	39	18.5	16.576163220711
8	40	19	17.04590348
8	41	19.5	17.511949481893
8	42	20	17.948874973443
8	43	20.5	18.398306984392
8	44	21	18.875087373511
8	45	21.5	19.375399535641
8	46	22	19.816389375537
8	47	22.5	20.27372128587
8	48	23	20.748558687948
8	49	23.5	21.214605076791
8	50	24	21.723559591782
8	51	24.5	22.158030788045
8	52	25	22.180865816828
8	53	25.5	22.164680755404
8	54	26	22.164840675383
8	55	26.5	22.218768838248
8	56	27	22.171807797495
8	57	27.5	22.215426433589
8	58	28	22.199853998441
8	59	28.5	22.167198591596
8	60	29	22.16194917758
8	61	29.5	22.206758969524
8	62	30	22.178201122959
8	63	30.5	22.214963697381
8	64	31	22.198859407622
8	65	31.5	22.2038517011
8	144	32	22.186262325868
8	145	32.5	22.202624620232
8	146	33	22.219863656233
8	147	33.5	22.167788052191
8	148	34	22.202800164078
8	149	34.5	22.217187748034
8	150	35	22.195973929828
8	151	35.5	22.211866106712
8	152	36	22.170279956269
8	153	36.5	22.163523615594
8	154	37	22.168545345282
8	155	37.5	22.167798402975
8	156	38	22.186826498653
8	157	38.5	22.193691120511
8	158	39	22.185229519703
8	159	39.5	22.177593529359
8	160	40	22.19146439536
8	162	40.5	22.162687323107
8	163	41	22.197801454882
8	164	41.5	22.217959166225
8	165	42	22.204708646093
8	166	42.5	22.200998968482
8	167	43	22.165243705269
8	168	43.5	22.2156477495
8	169	44	22.215933352709
8	170	44.5	22.165281229946
8	171	45	22.195793533404
8	172	45.5	22.168840515916
8	173	46	22.177717501842
8	174	46.5	22.185965690343
8	175	47	22.214475051789
8	176	47.5	22.215324746016
8	177	48	22.167504116255
8	178	48.5	22.193515154943
8	179	49	22.177530833464
8	180	49.5	22.169618578316
8	181	50	22.206625824641
8	182	50.5	21.580384363871
8	183	51	19.616930420607
8	184	51.5	17.616930420607
8	185	52	15.616930420607
8	186	52.5	13.61776835161
8	187	53	11.61776835161
8	188	53.5	9.6177683516095
8	189	54	7.621709618162
8	190	54.5	6.1442299241564
8	191	55	6.7442299241564
8	192	55.5	7.255018803835
8	193	56	7.7594606428632
8	194	56.5	8.2108324556184
8	195	57	8.7083027334084
8	196	57.5	9.1773656754932
8	197	58	9.6408373741704
8	198	58.5	10.031210490148
8	199	59	10.484874080326
8	200	59.5	10.936389134316
8	201	60	11.464534922367
8	202	60.5	11.840224058138
8	203	61	12.359627453148
8	204	61.5	12.792568083814
8	205	62	13.280919353938
8	206	62.5	13.686657109763
8	207	63	14.05839870647
8	208	63.5	14.460127212111
8	209	64	14.901902201068
8	282	64.5	15.351649767076
8	283	65	15.798307207603
8	284	65.5	16.258607918065
8	285	66	16.628750642347
8	286	66.5	16.650571294082
8	287	67	16.616772580417
8	288	67.5	16.650385994595
8	289	68	16.654690879406
8	363	68.5	16.664125773064
8	437	69	16.651049871976
8	511	69.5	16.62023888641
8	512	70	16.626875846363
8	513	70.5	16.616585292728
8	514	71	16.641551270909
8	515	71.5	16.641791198403
8	517	72	16.653362404625
8	518	72.5	16.635026598955
8	519	73	16.638479435425
8	520	73.5	16.632992752376
8	740	74	16.667005961989
8	814	74.5	16.644645532873
8	961	75	16.660747380229
8	962	75.5	16.633879308454
8	963	76	16.635898684096
8	964	76.5	16.648442312512
8	965	77	16.626150358738
8	1039	77.5	16.61202521604
8	1040	78	16.613346314928
8	1188	78.5	16.642588211489
8	1191	79	16.615855952976
8	1193	79.5	16.655659237397
8	1196	80	16.631936747716
8	1197	80.5	16.614780669156
8	1198	81	16.646658442868
8	1199	81.5	16.647091515311
8	1200	82	16.665983703821
8	1201	82.5	16.666648380556
8	1202	83	16.654696594453
8	1203	83.5	16.668298711353
8	1204	84	16.657574502258
8	1205	84.5	15.268735256246
8	1206	85	15.043902140544
8	1207	85.5	13.871743001975
8	1208	86	13.844590774127
8	1209	86.5	13.852706948491
8	1210	87	13.83007688791
8	1211	87.5	13.879861591388
8	1212	88	13.855097279227
8	1213	88.5	13.867155090538
8	1214	89	13.837531580497
8	1215	89.5	13.848498643404
8	1216	90	13.882349604056
8	1217	90.5	13.713017084247
8	1218	91	11.755890308297
8	1219	91.5	9.7558903082975
8	1220	92	7.7558903082975
8	1221	92.5	5.7583683660815
8	1222	93	6.3583683660815
8	1223	93.5	6.8463033683321
8	1224	94	7.2485037747308
8	1225	94.5	7.7184753818394
8	1226	95	8.1805615076798
8	1227	95.5	8.5494647345229
8	1228	96	9.0345039918882
8	1229	96.5	9.5084091952678
8	1230	97	9.9768066636103
8	1231	97.5	10.416117332774
8	1232	98	10.846483959151
8	1233	98.5	11.331785553894
8	1234	99	11.761553486116
8	1235	99.5	12.162106962018
8	1236	100	12.643488149401
8	1237	100.5	13.119363308107
8	1238	101	13.589265983324
8	1239	101.5	13.83293677845
8	1240	102	13.888926274027
8	1241	102.5	13.875961573399
8	1242	103	13.838223987445
8	1243	103.5	13.864674470359
8	1244	104	13.843729357249
8	1245	104.5	13.866080609886
8	1246	105	13.841296141539
8	1247	105.5	13.854572706171
8	1248	106	13.861057595084
9	4	1	2.0116060111359
9	5	1.5	3.0081261322249
9	6	2	3.9596735773885
9	7	2.5	4.9147222280081
9	8	3	5.889326381562
9	9	3.5	6.8788821249406
9	10	4	7.7938837797867
9	11	4.5	8.7023372510245
9	12	5	8.6754488682753
9	13	5.5	8.6928926480847
9	14	6	8.6739304756915
9	15	6.5	8.6486439504597
9	16	7	8.6071240203461
9	17	7.5	8.6096484815405
9	18	8	8.6765494632844
9	19	8.5	8.691906216222
9	20	9	8.6895699835668
9	21	9.5	8.6917188767746
9	22	10	8.6876668885426
9	23	10.5	8.6548053989519
9	24	11	8.6498789012042
9	25	11.5	9.3105579491106
9	26	12	10.306217582808
9	27	12.5	11.226979594259
9	28	13	12.140981362973
9	29	13.5	13.117551298785
9	30	14	13.969481934591
9	31	14.5	13.8435789962
9	32	15	11.61471192603
9	33	15.5	10.5303115453
9	34	16	8.727996280003
9	35	16.5	8.6786673143745
9	36	17	8.6113086891018
9	37	17.5	8.6799250831228
9	38	18	8.7312646191504
9	39	18.5	8.6191957829014
9	40	19	8.6255628256739
9	41	19.5	8.640095662757
9	42	20	8.7224545112398
9	43	20.5	8.7102991879225
9	44	21	8.6680538501061
9	45	21.5	8.687159623318
9	46	22	8.6143776310661
9	47	22.5	8.701649005111
9	48	23	8.694289473822
9	49	23.5	8.6238870165713
9	50	24	8.6729226478452
9	51	24.5	8.6525806385588
9	52	25	8.6307179475512
9	53	25.5	8.6969431934116
9	54	26	8.6335482753773
9	55	26.5	6.8635875598246
9	56	27	7.4535875598246
9	57	27.5	8.6192236613829
9	58	28	9.7195325001443
9	59	28.5	10.723088909916
9	60	29	11.642868467171
9	61	29.5	12.546221441766
9	62	30	13.645800116907
9	63	30.5	14.559675122629
9	64	31	14.495002092735
9	65	31.5	14.541947132022
9	144	32	14.435276740821
9	145	32.5	14.540433851882
9	146	33	14.548035021111
9	147	33.5	14.47648254187
9	148	34	14.488430435123
9	149	34.5	14.498726023423
9	150	35	14.506795355849
9	151	35.5	14.456248789478
9	152	36	14.534164740203
9	153	36.5	14.453060064965
9	154	37	14.550677891778
9	155	37.5	14.437574530322
9	156	38	14.500435655181
9	157	38.5	14.486342127523
9	158	39	14.5276124709
9	159	39.5	14.533853154012
9	160	40	14.481712085273
9	162	40.5	14.444666899104
9	163	41	14.477096496198
9	164	41.5	14.433516102244
9	165	42	14.500294024718
9	166	42.5	14.460819787759
9	167	43	12.996012484405
9	168	43.5	10.757507540396
9	169	44	8.5075075403963
9	170	44.5	6.2575075403963
9	171	45	7.5575075403963
9	172	45.5	8.5096150686278
9	173	46	9.460639632406
9	174	46.5	10.345157276952
9	175	47	11.201046515362
9	176	47.5	12.154825661761
9	177	48	13.017918653771
9	178	48.5	14.03233964305
9	179	49	14.501747551862
9	180	49.5	14.491342554851
9	181	50	14.506633412178
9	182	50.5	14.548575382772
9	183	51	14.54822373191
9	184	51.5	14.527033428179
9	185	52	14.512090891599
9	186	52.5	14.554619557992
9	187	53	14.447408475936
9	188	53.5	14.53172453887
9	189	54	14.480762663406
9	190	54.5	14.438121919028
9	191	55	14.558232903694
9	192	55.5	14.542846894631
9	193	56	14.554609659483
9	194	56.5	14.477540882199
9	195	57	14.552038549333
9	196	57.5	14.437921243931
9	197	58	14.543844697994
9	198	58.5	14.561337858656
9	199	59	14.44387854241
9	200	59.5	14.43810947138
9	201	60	14.526182060141
9	202	60.5	14.466360179844
9	203	61	14.437450976564
9	204	61.5	14.505227556291
9	205	62	14.526362177435
9	206	62.5	14.55133236068
9	207	63	14.49503661455
9	208	63.5	14.529871659581
9	209	64	14.439649571012
9	282	64.5	14.483768474983
9	283	65	14.506621771868
9	284	65.5	14.494738701437
9	285	66	14.441553623079
9	286	66.5	14.514941137514
9	287	67	14.443122876046
9	288	67.5	14.512384618378
9	289	68	14.53218452505
9	363	68.5	14.500015057576
9	437	69	14.513352883699
9	511	69.5	14.535425908015
9	512	70	14.492530892446
9	513	70.5	14.489375022831
9	514	71	14.46081409977
9	515	71.5	14.521259556375
9	517	72	14.449552068493
9	518	72.5	14.556927578434
9	519	73	14.549219611652
9	520	73.5	14.520987667976
9	740	74	14.433452759012
9	814	74.5	14.503778542193
9	961	75	14.55948699579
9	962	75.5	14.555067569613
9	963	76	14.548701224426
9	964	76.5	14.475711396035
9	965	77	14.512918735511
9	1039	77.5	14.480927313579
9	1040	78	14.497250521359
9	1188	78.5	14.448809500932
9	1191	79	14.498420724286
9	1193	79.5	14.469818532433
9	1196	80	14.491440663192
9	1197	80.5	14.55849653202
9	1198	81	14.48788325227
9	1199	81.5	14.497743324602
9	1200	82	14.536177329325
9	1201	82.5	14.436843053314
9	1202	83	14.541605631953
9	1203	83.5	14.501312886969
9	1204	84	14.547443385638
9	1205	84.5	14.537437022935
9	1206	85	14.531854001392
9	1207	85.5	14.518369469681
9	1208	86	14.473639399578
9	1209	86.5	14.470216451359
9	1210	87	14.49523915013
9	1211	87.5	14.473546095764
9	1212	88	14.533213128689
9	1213	88.5	14.458791967394
9	1214	89	14.470618839715
9	1215	89.5	14.466108705203
9	1216	90	14.461235053932
9	1217	90.5	14.460790763699
9	1218	91	14.541786234594
9	1219	91.5	14.469356786685
9	1220	92	14.461300030848
9	1221	92.5	14.475457256722
9	1222	93	14.493053014408
9	1223	93.5	14.539857172486
9	1224	94	14.538181362838
9	1225	94.5	14.432985000649
9	1226	95	14.44327165947
9	1227	95.5	14.496733579248
9	1228	96	14.496679494084
9	1229	96.5	14.458099357261
9	1230	97	14.55919458809
9	1231	97.5	14.449305741013
9	1232	98	14.471173897571
9	1233	98.5	14.488687246949
9	1234	99	14.555047085058
9	1235	99.5	14.509674064414
9	1236	100	14.543265025426
9	1237	100.5	14.500515971216
9	1238	101	14.476752003684
9	1239	101.5	14.553207657285
9	1240	102	14.503347931485
9	1241	102.5	14.436546382156
9	1242	103	14.521860121569
9	1243	103.5	14.533955061288
9	1244	104	14.512516063332
9	1245	104.5	14.522232632278
9	1246	105	14.477135983265
9	1247	105.5	14.449242116773
9	1248	106	14.54056980943
10	4	1	2.1311671961367
10	5	1.5	3.1435446060073
10	6	2	4.0758362758249
10	7	2.5	4.9786327199658
10	8	3	5.9862471878199
10	9	3.5	6.8543556765883
10	10	4	7.8430037378912
10	11	4.5	8.8951558063409
10	12	5	9.8639746389535
10	13	5.5	10.884495384309
10	14	6	11.750328246459
10	15	6.5	12.627083729126
10	16	7	13.680306829451
10	17	7.5	14.66311544073
10	18	8	15.631815495721
10	19	8.5	15.944889718909
10	20	9	15.933076143798
10	21	9.5	16.02704194391
10	22	10	16.012680860139
10	23	10.5	16.046975723119
10	24	11	15.991224413538
10	25	11.5	15.957330957596
10	26	12	16.006943297596
10	27	12.5	16.009157720807
10	28	13	15.938132288733
10	29	13.5	15.992241283309
10	30	14	16.031916167154
10	31	14.5	15.994183716753
10	32	15	16.050449797989
10	33	15.5	15.941528713664
10	34	16	16.035602408029
10	35	16.5	15.973466740693
10	36	17	16.029840288526
10	37	17.5	15.964652343749
10	38	18	16.008472060718
10	39	18.5	15.930056551905
10	40	19	16.034577265534
10	41	19.5	15.948862201169
10	42	20	15.927917716687
10	43	20.5	16.009976792937
10	44	21	15.924553301391
10	45	21.5	15.971704688843
10	46	22	15.946442086124
10	47	22.5	16.03932738042
10	48	23	15.927726235763
10	49	23.5	15.9891791369
10	50	24	15.975600421213
10	51	24.5	16.029597706406
10	52	25	15.938564928819
10	53	25.5	16.017461132803
10	54	26	15.986677580064
10	55	26.5	15.991367802329
10	56	27	15.941091452837
10	57	27.5	15.935278603801
10	58	28	15.940887910151
10	59	28.5	16.015791453997
10	60	29	16.044431088586
10	61	29.5	15.951873005662
10	62	30	16.049907877285
10	63	30.5	15.949109528975
10	64	31	15.976399861407
10	65	31.5	16.039754499081
10	144	32	15.938170450274
10	145	32.5	16.040572454352
10	146	33	15.990110049562
10	147	33.5	16.007202510792
10	148	34	16.044637274847
10	149	34.5	15.966868247155
10	150	35	15.996379570738
10	151	35.5	15.960602580668
10	152	36	15.972599685637
10	153	36.5	15.933823426839
10	154	37	15.944410204946
10	155	37.5	15.951852494351
10	156	38	16.025625474553
10	157	38.5	16.007644835604
10	158	39	15.980006347718
10	159	39.5	16.047505428088
10	160	40	16.038682358186
10	162	40.5	16.017372143357
10	163	41	15.98595333556
10	164	41.5	15.999757634413
10	165	42	15.967693241095
10	166	42.5	16.016159347687
10	167	43	15.95098133998
10	168	43.5	15.98331078985
10	169	44	15.949522169975
10	170	44.5	15.938722888315
10	171	45	15.994377072174
10	172	45.5	15.960719714193
10	173	46	16.036747667473
10	174	46.5	16.003411920378
10	175	47	15.926190744492
10	176	47.5	16.028492913561
10	177	48	15.954295847065
10	178	48.5	15.930087008821
10	179	49	16.050765266624
10	180	49.5	15.946540788627
10	181	50	16.047154875864
10	182	50.5	16.044851440415
10	183	51	15.954742200878
10	184	51.5	15.988267603103
10	185	52	15.933767139437
10	186	52.5	16.010416099606
10	187	53	16.041816550598
10	188	53.5	15.990570030597
10	189	54	16.027989416488
10	190	54.5	15.979148138783
10	191	55	15.950659864785
10	192	55.5	15.991674751526
10	193	56	15.997690081024
10	194	56.5	15.981501906892
10	195	57	16.04799563116
10	196	57.5	15.963222563442
10	197	58	16.038185222203
10	198	58.5	15.936626598835
10	199	59	15.984057411778
10	200	59.5	16.003633745774
10	201	60	15.963876459068
10	202	60.5	16.045317722033
10	203	61	16.015014840826
10	204	61.5	15.959403668982
10	205	62	16.044345152635
10	206	62.5	15.946472504267
10	207	63	16.002355689335
10	208	63.5	16.018551534675
10	209	64	15.939434887635
10	282	64.5	15.991640690449
10	283	65	15.997804384644
10	284	65.5	16.016177602611
10	285	66	16.00453357809
10	286	66.5	15.995890068007
10	287	67	16.023923876675
10	288	67.5	15.991254406113
10	289	68	15.994018678272
10	363	68.5	15.988070448595
10	437	69	15.93676252109
10	511	69.5	15.967154056163
10	512	70	16.011636202936
10	513	70.5	15.970438039953
10	514	71	15.987461896255
10	515	71.5	15.977461426335
10	517	72	16.03284261765
10	518	72.5	16.021682521042
10	519	73	16.033256374903
10	520	73.5	15.99625723908
10	740	74	16.00028482378
10	814	74.5	15.96132482237
10	961	75	15.962744717002
10	962	75.5	16.0086616574
10	963	76	15.938323096014
10	964	76.5	15.961653459515
10	965	77	15.955640514649
10	1039	77.5	16.032175811548
10	1040	78	15.926918053932
10	1188	78.5	16.031490501538
10	1191	79	15.965893764305
10	1193	79.5	16.000205702938
10	1196	80	15.967191368172
10	1197	80.5	15.964593912738
10	1198	81	15.924664247535
10	1199	81.5	15.929087276147
10	1200	82	16.020948994891
10	1201	82.5	16.03437451145
10	1202	83	15.953814384388
10	1203	83.5	15.997050947214
10	1204	84	16.035249913235
10	1205	84.5	16.015948285708
10	1206	85	15.938694598677
10	1207	85.5	15.966882932121
10	1208	86	15.933520483126
10	1209	86.5	15.455755764234
10	1210	87	13.205755764234
10	1211	87.5	10.955755764234
10	1212	88	8.7057557642343
10	1213	88.5	6.4583663443107
10	1214	89	7.7583663443107
10	1215	89.5	8.9456801394144
10	1216	90	9.8591548633812
10	1217	90.5	10.996745942438
10	1218	91	11.874959272428
10	1219	91.5	12.846652529748
10	1220	92	13.71309401661
10	1221	92.5	14.640323151618
10	1222	93	15.598211182037
10	1223	93.5	16.007034735571
10	1224	94	15.92431600503
10	1225	94.5	15.968203354385
10	1226	95	16.031358260687
10	1227	95.5	16.025419193916
10	1228	96	16.022096646233
10	1229	96.5	16.040075402907
10	1230	97	15.973437943613
10	1231	97.5	15.954632574418
10	1232	98	16.027704263116
10	1233	98.5	16.015874103359
10	1234	99	15.982719374909
10	1235	99.5	16.006271613415
10	1236	100	16.031546367882
10	1237	100.5	15.964046528663
10	1238	101	15.930924477014
10	1239	101.5	15.992789759089
10	1240	102	16.037131014695
10	1241	102.5	16.017568624886
10	1242	103	15.939912445771
10	1243	103.5	15.92861611978
10	1244	104	15.950342137947
10	1245	104.5	15.930654974489
10	1246	105	15.977008021505
10	1247	105.5	15.967395167924
10	1248	106	15.925929791311
11	4	1	2.1601955810489
11	5	1.5	3.1144628968242
11	6	2	4.1105820955232
11	7	2.5	5.2289444127435
11	8	3	6.0858094900696
11	9	3.5	7.0473769874488
11	10	4	8.1433097840416
11	11	4.5	9.173221089911
11	12	5	10.05867896536
11	13	5.5	11.148680243594
11	14	6	12.171584089579
11	15	6.5	13.106705217048
11	16	7	13.99409036707
11	17	7.5	14.543085340356
11	18	8	14.602687780525
11	19	8.5	14.517289030695
11	20	9	14.570008487972
11	21	9.5	14.575677133071
11	22	10	14.560443590894
11	23	10.5	14.61913622578
11	24	11	14.54825024424
11	25	11.5	14.519225431246
11	26	12	14.543037858788
11	27	12.5	14.612220510697
11	28	13	14.538531441971
11	29	13.5	14.588886783152
11	30	14	14.586384882714
11	31	14.5	14.525227403968
11	32	15	14.635057979818
11	33	15.5	14.556876347599
11	34	16	14.55173467303
11	35	16.5	14.521861440282
11	36	17	14.524333486348
11	37	17.5	14.61959528806
11	38	18	14.517940223239
11	39	18.5	14.534069228821
11	40	19	14.557720358247
11	41	19.5	14.618730225999
11	42	20	14.640260186026
11	43	20.5	14.559702563066
11	44	21	14.570991012117
11	45	21.5	14.576682747238
11	46	22	14.547124937753
11	47	22.5	14.542483149316
11	48	23	14.608776330758
11	49	23.5	14.563148345725
11	50	24	14.584590232608
11	51	24.5	14.596463933828
11	52	25	14.632218628198
11	53	25.5	14.640536238936
11	54	26	14.56424671979
11	55	26.5	14.59985831915
11	56	27	12.99679047554
11	57	27.5	11.634470266352
11	58	28	11.410184876751
11	59	28.5	9.1768068300144
11	60	29	8.6692932682091
11	61	29.5	8.6545815453751
11	62	30	8.7020650549073
11	63	30.5	8.6871573199102
11	64	31	8.6874157221059
11	65	31.5	8.6518976251481
11	144	32	8.7110292333926
11	145	32.5	8.774150936534
11	146	33	8.7104188366423
11	147	33.5	8.6722553810503
11	148	34	8.7317063623786
11	149	34.5	8.6881515744424
11	150	35	8.7715638518802
11	151	35.5	8.7794007455933
11	152	36	8.7632931033967
11	153	36.5	8.7074452181233
11	154	37	8.693996891219
11	155	37.5	8.7769655293066
11	156	38	8.6914618702515
11	157	38.5	8.7105710856596
11	158	39	8.6624263996587
11	159	39.5	8.6731065072774
11	160	40	8.6904158540469
11	162	40.5	8.6650666580468
11	163	41	8.6606381080093
11	164	41.5	8.6934913809624
11	165	42	8.6606514358803
11	166	42.5	8.7544216800577
11	167	43	8.7445978709499
11	168	43.5	8.7012716774506
11	169	44	8.7185145582704
11	170	44.5	8.667836338247
11	171	45	8.6909460607383
11	172	45.5	8.7075279357404
11	173	46	8.7485729695743
11	174	46.5	8.7242872684801
11	175	47	8.7322103780022
11	176	47.5	8.7531157424467
11	177	48	8.7799054334385
11	178	48.5	8.7732399426869
11	179	49	8.6577463098129
11	180	49.5	8.7618389691369
11	181	50	8.7209031851383
11	182	50.5	8.6769899024165
11	183	51	8.6641497856428
11	184	51.5	8.6936713287866
11	185	52	8.6623799932099
11	186	52.5	8.7401000922525
11	187	53	8.7784088976987
11	188	53.5	8.7419353317845
11	189	54	8.7384252621073
11	190	54.5	8.6676370343196
11	191	55	8.7160342569442
11	192	55.5	8.715332665907
11	193	56	8.780635785356
11	194	56.5	8.6968886990406
11	195	57	8.6968477597766
11	196	57.5	8.6854054624381
11	197	58	8.779265278145
11	198	58.5	8.7618051253239
11	199	59	8.6807704321763
11	200	59.5	7.8473887787453
11	201	60	7.0173887787453
11	202	60.5	8.2610976064714
11	203	61	8.744770626738
11	204	61.5	8.7614393422499
11	205	62	8.7142987736038
11	206	62.5	8.7401116884619
11	207	63	8.6869030514129
11	208	63.5	8.7490637344195
11	209	64	8.7702039589852
11	282	64.5	8.7444894748836
11	283	65	8.7359588133779
11	284	65.5	8.7609916175695
11	285	66	8.7728298290635
11	286	66.5	8.7583424186244
11	287	67	8.7032469455435
11	288	67.5	8.7681611490066
11	289	68	8.7772734280399
11	363	68.5	8.7244816663003
11	437	69	8.6597574304536
11	511	69.5	8.7010967854995
11	512	70	7.0643598282226
11	513	70.5	6.9443598282226
11	514	71	8.1501582665794
11	515	71.5	8.7750914363077
11	517	72	8.7280203766029
11	518	72.5	8.6893657501208
11	519	73	8.741511089702
11	520	73.5	8.6624551426808
11	740	74	8.6534976375897
11	814	74.5	8.663464951718
11	961	75	8.7583733426969
11	962	75.5	8.7149393940557
11	963	76	8.6982197976395
11	964	76.5	8.7566471239322
11	965	77	8.7052524003808
11	1039	77.5	8.7195255860177
11	1040	78	8.774701562885
11	1188	78.5	8.7341693063176
11	1191	79	8.6840731273012
11	1193	79.5	8.7778716253399
11	1196	80	8.7128668408494
11	1197	80.5	8.701766609622
11	1198	81	8.7216747665292
11	1199	81.5	8.6578477999059
11	1200	82	8.6718263143118
11	1201	82.5	8.6649365852916
11	1202	83	8.7757376939294
11	1203	83.5	8.7237144108096
11	1204	84	8.735012030334
11	1205	84.5	8.7287128063085
11	1206	85	8.7219206803667
11	1207	85.5	8.687624826534
11	1208	86	8.6960762730337
11	1209	86.5	8.7545836010578
11	1210	87	8.7548404569531
11	1211	87.5	8.6759325995229
11	1212	88	8.7730209290658
11	1213	88.5	8.6616757868978
11	1214	89	8.7090935847282
11	1215	89.5	8.6744481950698
11	1216	90	8.6986431660064
11	1217	90.5	8.681419831524
11	1218	91	8.7218333733061
11	1219	91.5	8.7461864816843
11	1220	92	8.656681253291
11	1221	92.5	8.6512428836225
11	1222	93	8.743206271888
11	1223	93.5	8.7282528218839
11	1224	94	8.6547085314317
11	1225	94.5	8.6882510990839
11	1226	95	8.7401148005554
11	1227	95.5	8.7279904800377
11	1228	96	8.7751050398595
11	1229	96.5	8.7331172553429
11	1230	97	8.7710751733163
11	1231	97.5	8.7428836030143
11	1232	98	8.7494325259796
11	1233	98.5	8.7260785155257
11	1234	99	8.6980728152211
11	1235	99.5	8.7679445871527
11	1236	100	8.651732086337
11	1237	100.5	8.7367764680579
11	1238	101	8.6629331471797
11	1239	101.5	8.6844162257624
11	1240	102	8.67152833025
11	1241	102.5	8.6681075876581
11	1242	103	8.747604152195
11	1243	103.5	8.6515674696703
11	1244	104	8.727775169886
11	1245	104.5	8.7801494413012
11	1246	105	8.7590364766869
11	1247	105.5	8.7793189245139
11	1248	106	8.7077228623725
12	5	1.5	0.90630194198784
12	6	2	0.91340702508576
12	7	2.5	0.96825475567952
12	8	3	1.001690817643
12	9	3.5	0.73637216261588
12	10	4	0.8844090156164
12	11	4.5	0.85604035260156
12	12	5	0.94190141592175
12	13	5.5	0.87370130069554
12	14	6	0.89731501227245
12	15	6.5	0.7596429517027
12	16	7	0.97169857121073
12	17	7.5	0.99587312475778
12	18	8	0.86374559696764
12	19	8.5	0.76456936011091
12	20	9	0.79889440412633
12	21	9.5	0.93416607781313
12	22	10	0.87777238251641
12	23	10.5	0.92371814771554
12	24	11	0.93108706858008
12	25	11.5	0.90864346138201
12	26	12	0.79313572201877
12	27	12.5	0.87431033494881
12	28	13	0.97034959137439
12	29	13.5	0.98360280549153
12	30	14	0.89162361418827
12	31	14.5	0.97794342010281
12	32	15	0.84577668593264
12	33	15.5	0.80947559558786
12	34	16	1.0745330942888
12	35	16.5	0.9206899466738
12	36	17	0.79484071819111
12	37	17.5	0.83752169860526
12	38	18	0.95642699377611
12	39	18.5	0.78657678823919
12	40	19	0.93948051857763
12	41	19.5	0.93209200378508
12	42	20	0.87385098310188
12	43	20.5	0.89886402189732
12	44	21	0.95356077823789
12	45	21.5	1.0006243242603
12	46	22	0.88197967979127
12	47	22.5	0.91466382066721
12	48	23	0.94967480415479
12	49	23.5	0.93209277768621
12	50	24	1.017909029983
12	51	24.5	0.86894239252434
12	52	25	0.045670057566518
12	53	25.5	-0.032370122848079
12	54	26	0.00031983995810236
12	55	26.5	0.10785632573068
12	56	27	-0.093922081505873
12	57	27.5	0.087237272188062
12	58	28	-0.031144870296117
12	59	28.5	-0.065310813691468
12	60	29	-0.010498828031125
12	61	29.5	0.089619583887981
12	62	30	-0.057115693129596
12	63	30.5	0.073525148844347
12	64	31	-0.032208579517906
12	65	31.5	0.00998458695598
12	144	32	-0.035178750464688
12	145	32.5	0.032724588727575
12	146	33	0.034478072002528
12	147	33.5	-0.10415120808408
12	148	34	0.070024223774674
12	149	34.5	0.028775167912244
12	150	35	-0.042427636412903
12	151	35.5	0.031784353768451
12	152	36	-0.083172300886361
12	153	36.5	-0.013512681350115
12	154	37	0.01004345937632
12	155	37.5	-0.0014938846137369
12	156	38	0.03805619135499
12	157	38.5	0.013729243716227
12	158	39	-0.016923201614993
12	159	39.5	-0.01527198068797
12	160	40	0.027741732001303
12	162	40.5	-0.05755414450541
12	163	41	0.070228263549502
12	164	41.5	0.040315422685815
12	165	42	-0.026501040263099
12	166	42.5	-0.0074193552229573
12	167	43	-0.071510526426131
12	168	43.5	0.1008080884628
12	169	44	0.00057120641693587
12	170	44.5	-0.10130424552597
12	171	45	0.061024606917051
12	172	45.5	-0.053906034976244
12	173	46	0.017753971852365
12	174	46.5	0.016496377000585
12	175	47	0.057018722891804
12	176	47.5	0.0016993884555987
12	177	48	-0.095641259523106
12	178	48.5	0.052022077376023
12	179	49	-0.031968642957509
12	180	49.5	-0.01582451029681
12	181	50	0.074014492649589
12	182	50.5	-1.2524829215399
12	183	51	-3.9269078865272
12	184	51.5	-4
12	185	52	-4
12	186	52.5	-3.9983241379949
12	187	53	-4
12	188	53.5	-4
12	189	54	-3.9921174668951
12	190	54.5	-2.9549593880111
12	191	55	1.2
12	192	55.5	1.0215777593572
12	193	56	1.0088836780563
12	194	56.5	0.90274362551048
12	195	57	0.99494055557995
12	196	57.5	0.9381258841697
12	197	58	0.92694339735433
12	198	58.5	0.78074623195454
12	199	59	0.90732718035578
12	200	59.5	0.90303010798059
12	201	60	1.0562915761024
12	202	60.5	0.75137827154249
12	203	61	1.0388067900203
12	204	61.5	0.86588126133195
12	205	62	0.97670254024677
12	206	62.5	0.81147551164962
12	207	63	0.74348319341428
12	208	63.5	0.80345701128244
12	209	64	0.88354997791349
12	282	64.5	0.89949513201601
12	283	65	0.89331488105468
12	284	65.5	0.92060142092408
12	285	66	0.74028544856414
12	286	66.5	0.043641303470359
12	287	67	-0.067597427330909
12	288	67.5	0.067226828355345
12	289	68	0.0086097696237246
12	363	68.5	0.018869787314905
12	437	69	-0.026151802176607
12	511	69.5	-0.061621971130371
12	512	70	0.013273919904606
12	513	70.5	-0.020581107269976
12	514	71	0.049931956361981
12	515	71.5	0.00047985498792968
12	517	72	0.023142412444578
12	518	72.5	-0.036671611340715
12	519	73	0.0069056729413575
12	520	73.5	-0.010973366098476
12	740	74	0.068026419226079
12	814	74.5	-0.044720858233049
12	961	75	0.032203694712365
12	962	75.5	-0.053736143549898
12	963	76	0.0040387512836588
12	964	76.5	0.025087256832045
12	965	77	-0.044583907546475
12	1039	77.5	-0.028250285396354
12	1040	78	0.0026421977765878
12	1188	78.5	0.058483793120836
12	1191	79	-0.053464517025283
12	1193	79.5	0.079606568841264
12	1196	80	-0.04744497936219
12	1197	80.5	-0.034312157118691
12	1198	81	0.063755547422915
12	1199	81.5	0.00086614488624548
12	1200	82	0.037784377019847
12	1201	82.5	0.0013293534703607
12	1202	83	-0.023903572205455
12	1203	83.5	0.027204233799125
12	1204	84	-0.021448418190701
12	1205	84.5	-2.7776784920227
12	1206	85	-0.44966623140499
12	1207	85.5	-2.3443182771374
12	1208	86	-0.054304455695672
12	1209	86.5	0.016232348727062
12	1210	87	-0.045260121161117
12	1211	87.5	0.099569406956434
12	1212	88	-0.049528624322267
12	1213	88.5	0.024115622621032
12	1214	89	-0.059247020082548
12	1215	89.5	0.021934125814585
12	1216	90	0.067701921304689
12	1217	90.5	-0.33866503961798
12	1218	91	-3.9142535518995
12	1219	91.5	-4
12	1220	92	-4
12	1221	92.5	-3.9950438844319
12	1222	93	1.2
12	1223	93.5	0.97587000450119
12	1224	94	0.80440081279725
12	1225	94.5	0.9399432142172
12	1226	95	0.92417225168086
12	1227	95.5	0.7378064536862
12	1228	96	0.97007851473055
12	1229	96.5	0.94781040675937
12	1230	97	0.93679493668489
12	1231	97.5	0.87862133832648
12	1232	98	0.86073325275443
12	1233	98.5	0.970603189487
12	1234	99	0.85953586444258
12	1235	99.5	0.80110695180483
12	1236	100	0.96276237476616
[...]
96	3234	237	1265.3479795111
96	3235	237.5	1265.110096205
96	3236	238	1264.8725895826
96	3237	238.5	1264.634416434
96	3238	239	1264.3983738208
96	3239	239.5	1264.1601775158
96	3240	240	1263.9232373973
96	3241	240.5	1263.6848678924
96	3242	241	1263.4491863921
96	3243	241.5	1263.2260880861
96	3244	242	1262.9987134729
96	3245	242.5	1262.7675296729
96	3246	243	1262.5370933991
97	2307	132	7.980778393984
97	2308	132.5	7.7876419405773
97	2309	133	8.457455438178
97	2310	133.5	9.1863940224538
97	2311	134	7.1348427663802
97	2312	134.5	7.0148427663802
97	2313	135	8.2037492915697
97	2314	135.5	9.1976699715515
97	2315	136	10.167103752039
97	2316	136.5	11.130441179388
97	2317	137	12.243167957269
97	2318	137.5	13.058353601136
97	2319	138	14.051497396595
97	2320	138.5	14.627051438206
97	2321	139	14.645382890986
97	2322	139.5	14.576668249996
97	2323	140	14.665648987867
97	2324	140.5	14.658913518233
97	2325	141	14.678337103851
97	2326	141.5	14.641360913218
97	2327	142	14.683334679148
97	2328	142.5	14.664734470706
97	2329	143	14.662640502992
97	2330	143.5	14.619015524933
97	2331	144	14.556507428916
97	2332	144.5	14.642121307472
97	2333	145	14.613438757603
97	2334	145.5	14.573920527553
97	2335	146	14.605955365034
97	2336	146.5	14.630412285483
97	2337	147	14.645977568937
97	2338	147.5	14.664681814554
97	2339	148	14.579115525017
97	2340	148.5	14.676039983091
97	2341	149	14.669554266728
97	2342	149.5	14.630227256935
97	2343	150	14.682821778237
97	2344	150.5	14.620634306582
97	2345	151	14.561666447433
97	2408	151.5	14.593304720662
97	2409	152	14.558276015079
97	2410	152.5	14.6573603267
97	2411	153	14.613898656309
97	2412	153.5	14.59271213211
97	2413	154	14.583370142054
97	2414	154.5	14.671357581286
97	2415	155	14.660964030082
97	2483	155.5	14.631522175305
97	2484	156	14.569097069682
97	2485	156.5	14.594879169153
97	2553	157	14.422946948583
97	2554	157.5	14.277332940013
97	2555	158	14.242451749209
97	2556	158.5	14.201537303371
97	2557	159	14.185530047003
97	2558	159.5	14.081991859225
97	2560	160	13.970110449597
97	2561	160.5	13.893821377642
97	2562	161	13.897031956584
97	2563	161.5	13.886079070906
97	2691	162	13.897789213039
97	2692	162.5	13.80134729955
97	2693	163	13.886559798226
97	2694	163.5	13.820817539936
97	2695	164	13.821916848932
97	2696	164.5	13.767238308908
97	2697	165	13.008382867677
97	2698	165.5	12.663198893206
97	2699	166	12.351654317607
97	2700	166.5	12.056577083024
97	2701	167	11.913787488445
97	2766	167.5	11.573187700046
97	2767	168	11.280368978039
97	2833	168.5	10.874148898132
97	2899	169	10.659088446319
97	2900	169.5	10.61618780517
97	2966	170	10.213414744462
97	2967	170.5	9.3156100603489
97	2968	171	9.3718268194413
97	2969	171.5	9.3661191946822
97	2970	172	9.3304305379246
97	3036	172.5	8.3119592825645
97	3038	173	8.5497207526927
97	3039	173.5	8.9193224113891
97	3106	174	8.8055577154196
97	3107	174.5	7.337047354529
97	3108	175	7.8628128150997
97	3109	175.5	8.5259211190689
97	3110	176	8.4026939571799
97	3111	176.5	6.1700593412146
97	3112	177	7.4700593412146
97	3113	177.5	8.4103419077317
97	3114	178	9.3263891547886
97	3115	178.5	10.422867323059
97	3116	179	11.465196342158
97	3117	179.5	12.46134118471
97	3118	180	13.382551754996
97	3119	180.5	14.470177416358
97	3120	181	14.648807114578
97	3121	181.5	14.647155426244
97	3122	182	14.594482006569
97	3123	182.5	14.624064462698
97	3124	183	14.611190729727
97	3126	183.5	14.668546175914
97	3127	184	14.580692609249
97	3128	184.5	14.572856985853
97	3129	185	14.553845068574
97	3130	185.5	14.565073580298
97	3132	186	14.624697435611
97	3133	186.5	14.558830439971
97	3134	187	14.648773211621
97	3135	187.5	14.643802295154
97	3136	188	14.680255767334
97	3137	188.5	14.467713244016
97	3138	189	14.001085562876
97	3139	189.5	13.45200493346
97	3140	190	13.075765508415
97	3141	190.5	12.592979678122
97	3142	191	12.142053651385
97	3143	191.5	11.663195720745
97	3144	192	11.239764563619
97	3145	192.5	10.899875601474
97	3146	193	10.636036842821
97	3147	193.5	10.171802757361
97	3148	194	9.9896067459747
97	3149	194.5	9.7827154318212
97	3150	195	9.5967019905961
97	3151	195.5	9.2908040728188
97	3152	196	9.1494941472981
97	3153	196.5	9.1239326345566
97	3154	197	9.0494476853284
97	3155	197.5	8.7578759022218
97	3156	198	8.7742255530504
97	3157	198.5	8.8048760703134
97	3158	199	8.7174306760808
97	3159	199.5	8.6280978136274
97	3160	200	8.5659716419301
97	3161	200.5	8.546132630859
97	3162	201	8.4154428907986
97	3163	201.5	8.3001400550359
97	3164	202	8.3388669189856
97	3165	202.5	8.3968322769707
97	3166	203	8.3072927424936
97	3167	203.5	7.9864542039802
97	3168	204	7.855198841344
97	3169	204.5	8.0929894362492
97	3170	205	8.0526613231277
97	3171	205.5	7.6176725879194
97	3172	206	7.7005180778163
97	3173	206.5	8.0516570228071
97	3174	207	8.1358285571645
97	3175	207.5	6.9875268486681
97	3176	208	7.2835833996333
97	3177	208.5	8.0209108803053
97	3178	209	8.3123612000548
97	3179	209.5	6.2793183604373
97	3180	210	7.5793183604373
97	3181	210.5	8.6261278849609
97	3182	211	8.6900316749486
97	3183	211.5	8.5663946528289
97	3184	212	8.6506739435281
97	3185	212.5	8.4945971467482
97	3186	213	8.4495684655075
97	3187	213.5	8.4234264918122
97	3188	214	8.3589656179222
97	3189	214.5	8.3204137180476
97	3190	215	8.3057763004848
97	3191	215.5	8.2547126654506
97	3192	216	8.2061474630984
97	3193	216.5	8.2800682108488
97	3194	217	8.1826492944926
97	3195	217.5	8.2271287867753
97	3196	218	8.3121969048793
97	3197	218.5	8.2092012217848
97	3198	219	8.1760336154964
97	3199	219.5	8.236226405553
97	3200	220	8.1645828735899
97	3201	220.5	8.2509330252764
97	3202	221	8.1826717194128
97	3203	221.5	8.1420058021519
97	3204	222	8.2183692061322
97	3205	222.5	8.0762651231098
97	3206	223	8.1207895052137
97	3207	223.5	8.1237071530622
97	3208	224	8.1828962884056
97	3209	224.5	8.1152956979481
97	3210	225	8.1673403122904
97	3211	225.5	8.1310217545131
97	3212	226	8.1875819787311
97	3213	226.5	8.0853380383123
97	3214	227	8.1750437768556
97	3215	227.5	8.1636854258803
97	3216	228	8.1786773678566
97	3217	228.5	8.126678119963
97	3218	229	8.1356098049456
97	3219	229.5	8.2024193710606
97	3220	230	8.1557592793635
97	3221	230.5	8.1162863835776
97	3222	231	8.1652210241895
97	3223	231.5	8.1304846732148
97	3224	232	8.1310900703516
97	3225	232.5	8.1176073541259
97	3226	233	8.0811905131978
97	3227	233.5	8.143396365474
97	3228	234	8.1813365529391
97	3229	234.5	8.1972911678944
97	3230	235	8.164436588851
97	3231	235.5	8.2128153764627
97	3232	236	8.1660708877819
97	3233	236.5	8.1816650661365
97	3234	237	8.1056456043461
97	3235	237.5	8.1719514869205
97	3236	238	8.1278207432176
97	3237	238.5	8.1230531832694
97	3238	239	8.1960726950865
97	3239	239.5	8.2011814352835
97	3240	240	8.1559072048372
97	3241	240.5	8.0825394222044
97	3242	241	7.9726503200724
97	3243	241.5	7.6075814586922
97	3244	242	7.90517472638
97	3245	242.5	7.9628428237058
97	3246	243	7.6203676258897
100	2307	132	-2.7587655050943
100	2308	132.5	-0.3862729068134
100	2309	133	1.3396269952014
100	2310	133.5	1.4578771685517
100	2311	134	-4.1031025121474
100	2312	134.5	-0.24
100	2313	135	2.377813050379
100	2314	135.5	1.9878413599636
100	2315	136	1.9388675609743
100	2316	136.5	1.9266748546995
100	2317	137	2.2254535557609
100	2318	137.5	1.6303712877352
100	2319	138	1.9862875909172
100	2320	138.5	1.1511080832221
100	2321	139	0.036662905560807
100	2322	139.5	-0.13742928198073
100	2323	140	0.17796147574205
100	2324	140.5	-0.013470939267428
100	2325	141	0.03884717123583
100	2326	141.5	-0.073952381266281
100	2327	142	0.083947531860321
100	2328	142.5	-0.037200416885316
100	2329	143	-0.0041879354277619
100	2330	143.5	-0.087249956117013
100	2331	144	-0.12501619203482
100	2332	144.5	0.17122775711119
100	2333	145	-0.057365099736487
100	2334	145.5	-0.079036460099744
100	2335	146	0.064069674960336
100	2336	146.5	0.048913840898315
100	2337	147	0.031130566908978
100	2338	147.5	0.037408491233364
100	2339	148	-0.17113257907331
100	2340	148.5	0.19384891614784
100	2341	149	-0.012971432725898
100	2342	149.5	-0.078654019585812
100	2343	150	0.1051890426036
100	2344	150.5	-0.1243749433104
100	2345	151	-0.11793571829796
100	2408	151.5	0.063276546457782
100	2409	152	-0.070057411165909
100	2410	152.5	0.19816862324253
100	2411	153	-0.086923340782526
100	2412	153.5	-0.04237304839771
100	2413	154	-0.018683980111966
100	2414	154.5	0.17597487846389
100	2415	155	-0.020787102407773
100	2483	155.5	-0.05888370955363
100	2484	156	-0.12485021124612
100	2485	156.5	0.051564198941286
100	2553	157	-0.34386444114033
100	2554	157.5	-0.29122801713839
100	2555	158	-0.069762381608587
100	2556	158.5	-0.081828891676619
100	2557	159	-0.032014512735618
100	2558	159.5	-0.20707637555628
100	2560	160	-0.22376281925656
100	2561	160.5	-0.15257814390917
100	2562	161	0.0064211578843185
100	2563	161.5	-0.021905771356014
100	2691	162	0.02342028426601
100	2692	162.5	-0.19288382697765
100	2693	163	0.17042499735126
100	2694	163.5	-0.13148451658063
100	2695	164	0.0021986179920575
100	2696	164.5	-0.10935708004757
100	2697	165	-1.5177108824616
100	2698	165.5	-0.69036794894305
100	2699	166	-0.62308915119817
100	2700	166.5	-0.59015446916557
100	2701	167	-0.28557918915826
100	2766	167.5	-0.6811995767975
100	2767	168	-0.58563744401311
100	2833	168.5	-0.81244015981475
100	2899	169	-0.43012090362525
100	2900	169.5	-0.085801282298668
100	2966	170	-0.80554612141542
100	2967	170.5	-1.7956093682267
100	2968	171	0.11243351818471
100	2969	171.5	-0.011415249518212
100	2970	172	-0.071377313515214
100	3036	172.5	-2.0369425107201
100	3038	173	0.47552294025627
100	3039	173.5	0.73920331739294
100	3106	174	-0.2275293919391
100	3107	174.5	-2.9370207217812
100	3108	175	1.0515309211414
100	3109	175.5	1.3262166079384
100	3110	176	-0.24645432377804
100	3111	176.5	-4.4652692319307
100	3112	177	2.6
100	3113	177.5	1.8805651330343
100	3114	178	1.8320944941137
100	3115	178.5	2.1929563365411
100	3116	179	2.0846580381971
100	3117	179.5	1.992289685104
100	3118	180	1.842421140573
100	3119	180.5	2.1752513227239
100	3120	181	0.35725939643989
100	3121	181.5	-0.0033033766690629
100	3122	182	-0.10534683934879
100	3123	182.5	0.059164912258275
100	3124	183	-0.025747465942988
100	3126	183.5	0.1147108923737
100	3127	184	-0.17570713332854
100	3128	184.5	-0.015671246792191
100	3129	185	-0.038023834559134
100	3130	185.5	0.022457023449242
100	3132	186	0.11924771062564
100	3133	186.5	-0.1317339912802
100	3134	187	0.17988554330077
100	3135	187.5	-0.0099418329354393
100	3136	188	0.072906944360586
100	3137	188.5	-0.42508504663606
100	3138	189	-0.93325536227905
100	3139	189.5	-1.098161258832
100	3140	190	-0.75247885009085
100	3141	190.5	-0.96557166058697
100	3142	191	-0.90185205347393
100	3143	191.5	-0.95771586127932
100	3144	192	-0.84686231425223
100	3145	192.5	-0.67977792429001
100	3146	193	-0.52767751730619
100	3147	193.5	-0.92846817091842
100	3148	194	-0.36439202277363
100	3149	194.5	-0.4137826283069
100	3150	195	-0.37202688245022
100	3151	195.5	-0.61179583555455
100	3152	196	-0.28261985104151
100	3153	196.5	-0.051123025482944
100	3154	197	-0.14896989845637
100	3155	197.5	-0.58314356621329
100	3156	198	0.032699301657267
100	3157	198.5	0.061301034525968
100	3158	199	-0.17489078846525
100	3159	199.5	-0.17866572490667
100	3160	200	-0.12425234339471
100	3161	200.5	-0.039678022142109
100	3162	201	-0.26137948012077
100	3163	201.5	-0.23060567152547
100	3164	202	0.077453727899332
100	3165	202.5	0.11593071597018
100	3166	203	-0.17907906895417
100	3167	203.5	-0.64167707702684
100	3168	204	-0.2625107252723
100	3169	204.5	0.47558118981036
100	3170	205	-0.080656226242912
100	3171	205.5	-0.8699774704167
100	3172	206	0.1656909797938
100	3173	206.5	0.70227788998172
100	3174	207	0.16834306871465
100	3175	207.5	-2.2966034169928
100	3176	208	0.59211310193047
100	3177	208.5	1.4746549613439
100	3178	209	0.58290063949895
100	3179	209.5	-4.0660856792349
100	3180	210	2.6
100	3181	210.5	2.0936190490471
100	3182	211	0.12780757997558
100	3183	211.5	-0.24727404423951
100	3184	212	0.16855858139846
100	3185	212.5	-0.31215359355978
100	3186	213	-0.090057362481566
100	3187	213.5	-0.052283947390539
100	3188	214	-0.12892174777989
100	3189	214.5	-0.077103799749274
100	3190	215	-0.029274835125673
100	3191	215.5	-0.10212727006838
100	3192	216	-0.097130404704359
100	3193	216.5	0.14784149550085
100	3194	217	-0.19483783271248
100	3195	217.5	0.088958984565387
100	3196	218	0.17013623620798
100	3197	218.5	-0.20599136618899
100	3198	219	-0.066335212576693
100	3199	219.5	0.1203855801131
100	3200	220	-0.14328706392615
100	3201	220.5	0.17270030337302
100	3202	221	-0.13652261172721
100	3203	221.5	-0.081331834521844
100	3204	222	0.15272680796069
100	3205	222.5	-0.28420816604485
100	3206	223	0.08904876420787
100	3207	223.5	0.0058352956968548
100	3208	224	0.11837827068687
100	3209	224.5	-0.13520118091503
100	3210	225	0.10408922868468
100	3211	225.5	-0.072637115554645
100	3212	226	0.11312044843604
100	3213	226.5	-0.20448788083764
100	3214	227	0.1794114770865
100	3215	227.5	-0.022716701950575
100	3216	228	0.029983883952671
100	3217	228.5	-0.10399849578727
100	3218	229	0.017863369965269
100	3219	229.5	0.13361913222993
100	3220	230	-0.093320183394066
100	3221	230.5	-0.078945791571957
100	3222	231	0.097869281223922
100	3223	231.5	-0.069472701949394
100	3224	232	0.0012107942735611
100	3225	232.5	-0.026965432451423
100	3226	233	-0.072833681856135
100	3227	233.5	0.12441170455241
100	3228	234	0.075880374930112
100	3229	234.5	0.03190922991055
100	3230	235	-0.065709158086815
100	3231	235.5	0.096757575223403
100	3232	236	-0.093488977361506
100	3233	236.5	0.031188356709155
100	3234	237	-0.15203892358074
100	3235	237.5	0.13261176514876
100	3236	238	-0.088261487405692
100	3237	238.5	-0.0095351198965332
100	3238	239	0.14603902363428
100	3239	239.5	0.010217480393923
100	3240	240	-0.090548460892617
100	3241	240.5	-0.14673556526552
100	3242	241	-0.21977820426404
100	3243	241.5	-0.73013772276035
100	3244	242	0.59518653537561
100	3245	242.5	0.11533619465166
100	3246	243	-0.68495039563221
101	2307	132	0.973
101	2308	132.5	0.973
101	2309	133	4.3043625951654
101	2310	133.5	4.8523921111139
101	2311	134	0.973
101	2312	134.5	0.973
101	2313	135	6.257936215621
101	2314	135.5	6.0319009005851
101	2315	136	6.4483017445801
101	2316	136.5	6.9424976156643
101	2317	137	8.4365743716223
101	2318	137.5	7.0765182291522
101	2319	138	8.7705253529887
101	2320	138.5	6.1624990427097
101	2321	139	2.2360813119554
101	2322	139.5	1.616512092358
101	2323	140	2.7378530365686
101	2324	140.5	2.0605458626739
101	2325	141	2.2476522775627
101	2326	141.5	1.8452991854599
101	2327	142	2.4078345650707
101	2328	142.5	1.9772898119761
101	2329	143	2.0937388760903
101	2330	143.5	1.7964442027255
101	2331	144	1.6585683132366
101	2332	144.5	2.7105472079422
101	2333	145	1.9012119112758
101	2334	145.5	1.8214027520075
101	2335	146	2.3279663921777
101	2336	146.5	2.2775338083873
101	2337	147	2.2166232157166
101	2338	147.5	2.2409665370945
101	2339	148	1.4982744408359
101	2340	148.5	2.7956124638155
101	2341	149	2.0634247036057
101	2342	149.5	1.8277221492606
101	2343	150	2.482933162195
101	2344	150.5	1.6657715451561
101	2345	151	1.6838127519523
101	2408	151.5	2.3236240749588
101	2409	152	1.8515295430214
101	2410	152.5	2.8079841288652
101	2411	153	1.797152323326
101	2412	153.5	1.951998374371
101	2413	154	2.0343495618057
101	2414	154.5	2.731689452319
101	2415	155	2.0349101087585
101	2483	155.5	1.8975508954525
101	2484	156	1.6601190505067
101	2485	156.5	2.2826203590255
101	2553	157	0.973
101	2554	157.5	1.0655227572436
101	2555	158	1.8244880392986
101	2556	158.5	1.7796102648106
101	2557	159	1.9485611016444
101	2558	159.5	1.3445152379727
101	2560	160	1.2824217714569
101	2561	160.5	1.5171073996611
101	2562	161	2.0498340490202
101	2563	161.5	1.9539056210669
101	2691	162	2.1068485998855
101	2692	162.5	1.3770707952504
101	2693	163	2.5976178293148
101	2694	163.5	1.5826440837433
101	2695	164	2.0280299568
101	2696	164.5	1.6523485916998
101	2697	165	0.973
101	2698	165.5	0.973
101	2699	166	0.973
101	2700	166.5	0.973
101	2701	167	0.973
101	2766	167.5	0.973
101	2767	168	0.973
101	2833	168.5	0.973
101	2899	169	0.973
101	2900	169.5	1.5131317783358
101	2966	170	0.973
101	2967	170.5	0.973
101	2968	171	1.8920810102024
101	2969	171.5	1.6119564326422
101	2970	172	1.4746359266201
101	3036	172.5	0.973
101	3038	173	2.5599789009264
101	3039	173.5	3.194776891189
101	3106	174	0.973
101	3107	174.5	0.973
101	3108	175	3.5267940938826
101	3109	175.5	4.3035828034337
101	3110	176	0.973
101	3111	176.5	0.973
101	3112	177	6.1896023036113
101	3113	177.5	5.3823738833528
101	3114	178	5.7527700633942
101	3115	178.5	7.2259109534567
101	3116	179	7.5624503623495
101	3117	179.5	7.8731047061419
101	3118	180	7.9191477490787
101	3119	180.5	9.6737174796345
101	3120	181	3.3683021770639
101	3121	181.5	2.0952083012513
101	3122	182	1.7306743059934
101	3123	182.5	2.3129052362886
101	3124	183	2.0123365981912
101	3126	183.5	2.5146914013307
101	3127	184	1.4823036440227
101	3128	184.5	2.0438514436876
101	3129	185	1.9634874453211
101	3130	185.5	2.1768847164775
101	3132	186	2.5247472658918
101	3133	186.5	1.6351762261583
101	3134	187	2.7421030534087
101	3135	187.5	2.0714217452271
101	3136	188	2.3683788648522
101	3137	188.5	0.973
101	3138	189	0.973
101	3139	189.5	0.973
101	3140	190	0.973
101	3141	190.5	0.973
101	3142	191	0.973
101	3143	191.5	0.973
101	3144	192	0.973
101	3145	192.5	0.973
101	3146	193	0.973
101	3147	193.5	0.973
101	3148	194	0.973
101	3149	194.5	0.973
101	3150	195	0.973
101	3151	195.5	0.973
101	3152	196	0.973
101	3153	196.5	1.5078904746819
101	3154	197	1.2901147066318
101	3155	197.5	0.973
101	3156	198	1.6648162846693
101	3157	198.5	1.7278848182219
101	3158	199	1.2242987964073
101	3159	199.5	1.214042955278
101	3160	200	1.3247794548661
101	3161	200.5	1.4982047923529
101	3162	201	0.973
101	3163	201.5	0.973
101	3164	202	1.7214897034499
101	3165	202.5	1.8043562374595
101	3166	203	0.973
101	3167	203.5	0.973
101	3168	204	0.973
101	3169	204.5	2.4769508968386
101	3170	205	1.3901697282901
101	3171	205.5	0.973
101	3172	206	1.831148951471
101	3173	206.5	2.9093667475756
101	3174	207	1.8822967415124
101	3175	207.5	0.973
101	3176	208	2.5364170559335
101	3177	208.5	4.3951649104961
101	3178	209	2.7317583368075
101	3179	209.5	0.973
101	3180	210	6.265049154137
101	3181	210.5	5.9378377066326
101	3182	211	1.8574971491214
101	3183	211.5	0.973
101	3184	212	1.9385244732956
101	3185	212.5	0.973
101	3186	213	1.3899475951977
101	3187	213.5	1.4654199968805
101	3188	214	1.3074770868563
101	3189	214.5	1.4099784386318
101	3190	215	1.5050028431001
101	3191	215.5	1.3569979314893
101	3192	216	1.3648209455413
101	3193	216.5	1.8568890874427
101	3194	217	0.973
101	3195	217.5	1.7347010237468
101	3196	218	1.9048582472648
101	3197	218.5	0.973
101	3198	219	1.4241928167164
101	3199	219.5	1.7978853912797
101	3200	220	1.2721962311717
101	3201	220.5	1.9033250063788
101	3202	221	1.2861187661059
101	3203	221.5	1.3930408120833
101	3204	222	1.8602267964617
101	3205	222.5	0.973
101	3206	223	1.7254980463914
101	3207	223.5	1.5628383061771
101	3208	224	1.7888108015644
101	3209	224.5	1.2864298226351
101	3210	225	1.7592029223198
101	3211	225.5	1.409562677405
101	3212	226	1.7788827472794
101	3213	226.5	0.973
101	3214	227	1.9083091327981
101	3215	227.5	1.5093832916086
101	3216	228	1.614177918339
101	3217	228.5	1.3479274484717
101	3218	229	1.5872304701298
101	3219	229.5	1.8208006044565
101	3220	230	1.3701242493376
101	3221	230.5	1.3965003661733
101	3222	231	1.7467686301151
101	3223	231.5	1.4157368306265
101	3224	232	1.5542778543042
101	3225	232.5	1.4982545078819
101	3226	233	1.4067408676539
101	3227	233.5	1.7968899246615
101	3228	234	1.7048689327625
101	3229	234.5	1.6193598116277
101	3230	235	1.4248360776991
101	3231	235.5	1.7488713122509
101	3232	236	1.3702479071434
101	3233	236.5	1.6167739970246
101	3234	237	1.2532109480819
101	3235	237.5	1.8157997647588
101	3236	238	1.3788005741314
101	3237	238.5	1.5327038956586
101	3238	239	1.8447042515623
101	3239	239.5	1.5767764635077
101	3240	240	1.3755788099979
101	3241	240.5	1.262853791623
101	3242	241	0.973
101	3243	241.5	0.973
101	3244	242	2.6708994878503
101	3245	242.5	1.7621048948842
101	3246	243	0.973

