version 3
run Default-0-20230317-13:37:03-38311
attr configname Default
attr datetime 20230317-13:37:03
attr datetimef 20230317-133703
attr experiment Default
attr inifile omnetpp.ini
attr iterationvars ""
attr iterationvarsd ""
attr iterationvarsf ""
attr measurement ""
attr network v5_0
attr processid 38311
attr repetition 0
attr replication #0
attr resultdir results
attr runnumber 0
attr seedset 0
config image-path ../../../inet4.4/images:../../../veins-5.2/images
config cmdenv-express-mode true
config cmdenv-autoflush true
config cmdenv-status-frequency 1s
config **.cmdenv-log-level info
config **.result-recording-modes all
config seed-set 0
config image-path ../../images
config network v5_0
config debug-on-errors true
config print-undisposed true
config **.scalar-recording true
config **.vector-recording true
config *.playgroundSizeX 3500m
config *.playgroundSizeY 3500m
config *.playgroundSizeZ 50m
config *.annotations.draw true
config *.obstacles.obstacles "xmldoc(\"config.xml\", \"//AnalogueModel[@type='SimpleObstacleShadowing']/obstacles\")"
config *.manager.updateInterval 0.5s
config *.manager.host "\"localhost\""
config *.manager.port 9999
config *.manager.autoShutdown true
config *.manager.launchConfig "xmldoc(\"v5_0_Final.launchd.xml\")"
config *.rsu[0].mobility.x 2000
config *.rsu[0].mobility.y 2000
config *.rsu[0].mobility.z 3
config *.rsu[*].applType "\"RSU\""
config *.rsu[*].appl.headerLength "80 bit"
config *.rsu[*].appl.sendBeacons false
config *.rsu[*].appl.dataOnSch false
config *.rsu[*].appl.beaconInterval 1s
config *.rsu[*].appl.beaconUserPriority 7
config *.rsu[*].appl.dataUserPriority 5
config *.rsu[*].nic.phy80211p.antennaOffsetZ "0 m"
config *.connectionManager.sendDirect true
config *.connectionManager.maxInterfDist 2600m
config *.connectionManager.drawMaxIntfDist false
config *.**.nic.mac1609_4.useServiceChannel false
config *.**.nic.mac1609_4.txPower 20mW
config *.**.nic.mac1609_4.bitrate 6Mbps
config *.**.nic.phy80211p.minPowerLevel -110dBm
config *.**.nic.phy80211p.useNoiseFloor true
config *.**.nic.phy80211p.noiseFloor -98dBm
config *.**.nic.phy80211p.decider "xmldoc(\"config.xml\")"
config *.**.nic.phy80211p.analogueModels "xmldoc(\"config.xml\")"
config *.**.nic.phy80211p.usePropagationDelay true
config *.**.nic.phy80211p.antenna "xmldoc(\"antenna.xml\", \"/root/Antenna[@id='monopole']\")"
config *.node[*].nic.phy80211p.antennaOffsetY "0 m"
config *.node[*].nic.phy80211p.antennaOffsetZ "1.895 m"
config *.**.nic.mac1609_4.useAcks true
config *.**.useAcks false
config *.node[*].applType "\"VeinsApp\""
config *.node[*].appl.headerLength "80 bit"
config *.node[*].appl.sendBeacons false
config *.node[*].appl.dataOnSch false
config *.node[*].appl.beaconInterval 1s
config *.node[*].veinsmobility.x 0
config *.node[*].veinsmobility.y 0
config *.node[*].veinsmobility.z 0
config *.node[*].veinsmobility.setHostSpeed false
config *.node[*0].veinsmobility.accidentCount 0
config *.node[*0].veinsmobility.accidentStart 73s
config *.node[*0].veinsmobility.accidentDuration 50s

vector 0 v5_0.rsu[0].nic.mac1609_4 channelBusy:vector ETV
attr recordingmode vector
attr source org_car2x_veins_modules_mac_sigChannelBusy
vector 1 v5_0.node[0].nic.mac1609_4 channelBusy:vector ETV
attr recordingmode vector
attr source org_car2x_veins_modules_mac_sigChannelBusy
vector 2 v5_0.node[0].veinsmobility posx ETV
vector 3 v5_0.node[0].veinsmobility posy ETV
vector 4 v5_0.node[1].nic.mac1609_4 channelBusy:vector ETV
attr recordingmode vector
attr source org_car2x_veins_modules_mac_sigChannelBusy
vector 5 v5_0.node[1].veinsmobility posx ETV
vector 6 v5_0.node[1].veinsmobility posy ETV
vector 7 v5_0.node[2].nic.mac1609_4 channelBusy:vector ETV
attr recordingmode vector
attr source org_car2x_veins_modules_mac_sigChannelBusy
vector 8 v5_0.node[2].veinsmobility posx ETV
vector 9 v5_0.node[2].veinsmobility posy ETV
vector 10 v5_0.node[3].nic.mac1609_4 channelBusy:vector ETV
attr recordingmode vector
attr source org_car2x_veins_modules_mac_sigChannelBusy
vector 11 v5_0.node[3].veinsmobility posx ETV
vector 12 v5_0.node[3].veinsmobility posy ETV
vector 13 v5_0.node[0].veinsmobility speed ETV
vector 14 v5_0.node[1].veinsmobility speed ETV
vector 15 v5_0.node[2].veinsmobility speed ETV
vector 16 v5_0.node[3].veinsmobility speed ETV
vector 17 v5_0.node[0].veinsmobility acceleration ETV
vector 18 v5_0.node[0].veinsmobility co2emission ETV
vector 19 v5_0.node[1].veinsmobility acceleration ETV
vector 20 v5_0.node[1].veinsmobility co2emission ETV
vector 21 v5_0.node[2].veinsmobility acceleration ETV
vector 22 v5_0.node[2].veinsmobility co2emission ETV
vector 23 v5_0.node[3].veinsmobility acceleration ETV
vector 24 v5_0.node[3].veinsmobility co2emission ETV
vector 25 v5_0.node[4].nic.mac1609_4 channelBusy:vector ETV
attr recordingmode vector
attr source org_car2x_veins_modules_mac_sigChannelBusy
vector 26 v5_0.node[4].veinsmobility posx ETV
vector 27 v5_0.node[4].veinsmobility posy ETV
vector 28 v5_0.node[5].nic.mac1609_4 channelBusy:vector ETV
attr recordingmode vector
attr source org_car2x_veins_modules_mac_sigChannelBusy
vector 29 v5_0.node[5].veinsmobility posx ETV
vector 30 v5_0.node[5].veinsmobility posy ETV
vector 31 v5_0.node[6].nic.mac1609_4 channelBusy:vector ETV
attr recordingmode vector
attr source org_car2x_veins_modules_mac_sigChannelBusy
vector 32 v5_0.node[6].veinsmobility posx ETV
vector 33 v5_0.node[6].veinsmobility posy ETV
vector 34 v5_0.node[4].veinsmobility speed ETV
vector 35 v5_0.node[5].veinsmobility speed ETV
vector 36 v5_0.node[6].veinsmobility speed ETV
vector 37 v5_0.node[7].nic.mac1609_4 channelBusy:vector ETV
attr recordingmode vector
attr source org_car2x_veins_modules_mac_sigChannelBusy
vector 38 v5_0.node[7].veinsmobility posx ETV
vector 39 v5_0.node[7].veinsmobility posy ETV
vector 40 v5_0.node[4].veinsmobility acceleration ETV
vector 41 v5_0.node[4].veinsmobility co2emission ETV
vector 42 v5_0.node[5].veinsmobility acceleration ETV
vector 43 v5_0.node[5].veinsmobility co2emission ETV
vector 44 v5_0.node[6].veinsmobility acceleration ETV
vector 45 v5_0.node[6].veinsmobility co2emission ETV
vector 46 v5_0.node[7].veinsmobility speed ETV
vector 47 v5_0.node[7].veinsmobility acceleration ETV
vector 48 v5_0.node[7].veinsmobility co2emission ETV
vector 49 v5_0.node[8].nic.mac1609_4 channelBusy:vector ETV
attr recordingmode vector
attr source org_car2x_veins_modules_mac_sigChannelBusy
vector 50 v5_0.node[8].veinsmobility posx ETV
vector 51 v5_0.node[8].veinsmobility posy ETV
vector 52 v5_0.node[9].nic.mac1609_4 channelBusy:vector ETV
attr recordingmode vector
attr source org_car2x_veins_modules_mac_sigChannelBusy
vector 53 v5_0.node[9].veinsmobility posx ETV
vector 54 v5_0.node[9].veinsmobility posy ETV
vector 55 v5_0.node[10].nic.mac1609_4 channelBusy:vector ETV
attr recordingmode vector
attr source org_car2x_veins_modules_mac_sigChannelBusy
vector 56 v5_0.node[10].veinsmobility posx ETV
vector 57 v5_0.node[10].veinsmobility posy ETV
vector 58 v5_0.node[8].veinsmobility speed ETV
vector 59 v5_0.node[9].veinsmobility speed ETV
vector 60 v5_0.node[10].veinsmobility speed ETV
vector 61 v5_0.node[8].veinsmobility acceleration ETV
vector 62 v5_0.node[8].veinsmobility co2emission ETV
vector 63 v5_0.node[9].veinsmobility acceleration ETV
vector 64 v5_0.node[9].veinsmobility co2emission ETV
vector 65 v5_0.node[10].veinsmobility acceleration ETV
vector 66 v5_0.node[10].veinsmobility co2emission ETV
vector 67 v5_0.node[11].nic.mac1609_4 channelBusy:vector ETV
attr recordingmode vector
attr source org_car2x_veins_modules_mac_sigChannelBusy
vector 68 v5_0.node[11].veinsmobility posx ETV
vector 69 v5_0.node[11].veinsmobility posy ETV
vector 70 v5_0.node[11].veinsmobility speed ETV
vector 71 v5_0.node[12].nic.mac1609_4 channelBusy:vector ETV
attr recordingmode vector
attr source org_car2x_veins_modules_mac_sigChannelBusy
vector 72 v5_0.node[12].veinsmobility posx ETV
vector 73 v5_0.node[12].veinsmobility posy ETV
vector 74 v5_0.node[11].veinsmobility acceleration ETV
vector 75 v5_0.node[11].veinsmobility co2emission ETV
vector 76 v5_0.node[13].nic.mac1609_4 channelBusy:vector ETV
attr recordingmode vector
attr source org_car2x_veins_modules_mac_sigChannelBusy
vector 77 v5_0.node[13].veinsmobility posx ETV
vector 78 v5_0.node[13].veinsmobility posy ETV
vector 79 v5_0.node[12].veinsmobility speed ETV
vector 80 v5_0.node[12].veinsmobility acceleration ETV
vector 81 v5_0.node[12].veinsmobility co2emission ETV
vector 82 v5_0.node[13].veinsmobility speed ETV
vector 83 v5_0.node[14].nic.mac1609_4 channelBusy:vector ETV
attr recordingmode vector
attr source org_car2x_veins_modules_mac_sigChannelBusy
vector 84 v5_0.node[14].veinsmobility posx ETV
vector 85 v5_0.node[14].veinsmobility posy ETV
vector 86 v5_0.node[13].veinsmobility acceleration ETV
vector 87 v5_0.node[13].veinsmobility co2emission ETV
vector 88 v5_0.node[14].veinsmobility speed ETV
vector 89 v5_0.node[14].veinsmobility acceleration ETV
vector 90 v5_0.node[14].veinsmobility co2emission ETV
vector 91 v5_0.node[15].nic.mac1609_4 channelBusy:vector ETV
attr recordingmode vector
attr source org_car2x_veins_modules_mac_sigChannelBusy
vector 92 v5_0.node[15].veinsmobility posx ETV
vector 93 v5_0.node[15].veinsmobility posy ETV
vector 94 v5_0.node[16].nic.mac1609_4 channelBusy:vector ETV
attr recordingmode vector
attr source org_car2x_veins_modules_mac_sigChannelBusy
vector 95 v5_0.node[16].veinsmobility posx ETV
vector 96 v5_0.node[16].veinsmobility posy ETV
vector 97 v5_0.node[15].veinsmobility speed ETV
vector 98 v5_0.node[16].veinsmobility speed ETV
vector 99 v5_0.node[17].nic.mac1609_4 channelBusy:vector ETV
attr recordingmode vector
attr source org_car2x_veins_modules_mac_sigChannelBusy
vector 100 v5_0.node[17].veinsmobility posx ETV
vector 101 v5_0.node[17].veinsmobility posy ETV
vector 102 v5_0.node[15].veinsmobility acceleration ETV
vector 103 v5_0.node[15].veinsmobility co2emission ETV
vector 104 v5_0.node[16].veinsmobility acceleration ETV
vector 105 v5_0.node[16].veinsmobility co2emission ETV
vector 106 v5_0.node[17].veinsmobility speed ETV
vector 107 v5_0.node[17].veinsmobility acceleration ETV
vector 108 v5_0.node[17].veinsmobility co2emission ETV
vector 109 v5_0.node[18].nic.mac1609_4 channelBusy:vector ETV
attr recordingmode vector
attr source org_car2x_veins_modules_mac_sigChannelBusy
vector 110 v5_0.node[18].veinsmobility posx ETV
vector 111 v5_0.node[18].veinsmobility posy ETV
vector 112 v5_0.node[18].veinsmobility speed ETV
vector 113 v5_0.node[18].veinsmobility acceleration ETV
vector 114 v5_0.node[18].veinsmobility co2emission ETV
vector 115 v5_0.node[19].nic.mac1609_4 channelBusy:vector ETV
attr recordingmode vector
attr source org_car2x_veins_modules_mac_sigChannelBusy
vector 116 v5_0.node[19].veinsmobility posx ETV
vector 117 v5_0.node[19].veinsmobility posy ETV
vector 118 v5_0.node[19].veinsmobility speed ETV
vector 119 v5_0.node[20].nic.mac1609_4 channelBusy:vector ETV
attr recordingmode vector
attr source org_car2x_veins_modules_mac_sigChannelBusy
vector 120 v5_0.node[20].veinsmobility posx ETV
vector 121 v5_0.node[20].veinsmobility posy ETV
vector 122 v5_0.node[19].veinsmobility acceleration ETV
vector 123 v5_0.node[19].veinsmobility co2emission ETV
vector 124 v5_0.node[20].veinsmobility speed ETV
vector 125 v5_0.node[20].veinsmobility acceleration ETV
vector 126 v5_0.node[20].veinsmobility co2emission ETV
vector 127 v5_0.node[21].nic.mac1609_4 channelBusy:vector ETV
attr recordingmode vector
attr source org_car2x_veins_modules_mac_sigChannelBusy
vector 128 v5_0.node[21].veinsmobility posx ETV
vector 129 v5_0.node[21].veinsmobility posy ETV
vector 130 v5_0.node[21].veinsmobility speed ETV
vector 131 v5_0.node[21].veinsmobility acceleration ETV
vector 132 v5_0.node[21].veinsmobility co2emission ETV
vector 133 v5_0.node[0].appl startHelpRequests:vector ETV
attr interpolationmode none
attr recordingmode vector
attr source start_bus_help_rq
vector 134 v5_0.node[0].nic.mac1609_4 sentPackets:vector ETV
attr recordingmode vector
attr source org_car2x_veins_modules_mac_sigSentPacket
vector 135 v5_0.node[0].appl startTimeTask:vector ETV
attr interpolationmode none
attr recordingmode vector
attr source task_started
vector 136 v5_0.node[0].appl startBalanceLoad:vector ETV
attr interpolationmode none
attr recordingmode vector
attr source start_balance_loading
vector 137 v5_0.node[0].appl stopHelpRequests:vector ETV
attr interpolationmode none
attr recordingmode vector
attr source stop_bus_help_rq
vector 138 v5_0.node[7].nic.mac1609_4 sentPackets:vector ETV
attr recordingmode vector
attr source org_car2x_veins_modules_mac_sigSentPacket
vector 139 v5_0.node[17].nic.mac1609_4 sentPackets:vector ETV
attr recordingmode vector
attr source org_car2x_veins_modules_mac_sigSentPacket
vector 140 v5_0.node[11].nic.mac1609_4 sentPackets:vector ETV
attr recordingmode vector
attr source org_car2x_veins_modules_mac_sigSentPacket
vector 141 v5_0.node[0].appl stopBalanceLoad:vector ETV
attr interpolationmode none
attr recordingmode vector
attr source stop_balance_loading
vector 142 v5_0.node[0].appl startDataMessages:vector ETV
attr interpolationmode none
attr recordingmode vector
attr source start_sending_data
vector 143 v5_0.node[7].appl stopDataMessages:vector ETV
attr interpolationmode none
attr recordingmode vector
attr source stop_sending_data
vector 144 v5_0.node[17].appl stopDataMessages:vector ETV
attr interpolationmode none
attr recordingmode vector
attr source stop_sending_data
vector 145 v5_0.node[11].appl stopDataMessages:vector ETV
attr interpolationmode none
attr recordingmode vector
attr source stop_sending_data
0	0	0	0
0	81	31.500004699205	1
0	125	31.500236699205	0
1	2	0.5	0
1	67	31.500001	1
1	101	31.500234	0
1	211	64.000006	1
1	243	64.000239	0
1	296	68.168605203437	1
1	328	68.168837203437	0
1	378	68.606827872462	1
1	418	68.607059872462	0
1	448	69.293232872884	1
1	484	69.293464872884	0
1	523	73.549267872884	1
1	555	73.549500872884	0
1	596	73.569071872884	1
1	628	73.569304872884	0
1	669	73.603799872884	1
1	701	73.604032872884	0
2	2	0.5	2631.7350595066
2	4	1	2631.6926603558
2	5	1.5	2631.6229630968
2	6	2	2631.5282912727
2	7	2.5	2631.4086490547
2	8	3	2631.2604225505
2	9	3.5	2631.0878849679
2	10	4	2630.892145407
2	11	4.5	2630.6724391839
2	12	5	2630.4276965775
2	13	5.5	2630.1573760558
2	14	6	2629.8625589869
2	15	6.5	2629.5448277204
2	16	7	2629.2030409186
2	17	7.5	2628.6408029457
2	18	8	2627.8116486142
2	19	8.5	2626.9391961291
2	20	9	2626.0184382494
2	21	9.5	2625.0464957781
2	22	10	2624.0224871623
2	23	10.5	2622.9469447999
2	24	11	2621.8176152725
2	25	11.5	2620.6311656146
2	26	12	2619.3974312966
2	27	12.5	2618.1143565062
2	28	13	2616.7776122186
2	29	13.5	2615.3838827169
2	30	14	2613.933876192
2	31	14.5	2612.430882662
2	32	15	2610.8750346797
2	33	15.5	2609.2680088609
2	34	16	2607.6054052793
2	35	16.5	2605.8840043985
2	36	17	2604.1164308966
2	37	17.5	2602.2985366323
2	38	18	2600.4298359854
2	39	18.5	2598.5080573106
2	40	19	2596.5386160006
2	41	19.5	2594.5145886635
2	42	20	2592.4347862339
2	43	20.5	2590.3038963825
2	44	21	2588.1187586169
2	45	21.5	2585.876224402
2	46	22	2583.5771736375
2	47	22.5	2581.2272843939
2	48	23	2578.8250272302
2	49	23.5	2576.3650223406
2	50	24	2573.8493392041
2	51	24.5	2571.2797833098
2	52	25	2568.6863330575
2	53	25.5	2566.0916482897
2	54	26	2563.498984852
2	55	26.5	2560.9030062138
2	56	27	2558.3092978451
2	57	27.5	2555.7130857587
2	58	28	2553.1184064959
2	59	28.5	2550.5230329406
2	60	29	2547.9285410434
2	61	29.5	2545.3335305103
2	62	30	2542.739428506
2	63	30.5	2540.1439816806
2	64	31	2537.5483003752
2	65	31.5	2534.9544071521
2	144	32	2532.3592119595
2	145	32.5	2529.7648866439
2	146	33	2527.1705369354
2	147	33.5	2524.5772709372
2	148	34	2521.9808218135
2	149	34.5	2519.3844282731
2	150	35	2516.7892806227
2	151	35.5	2514.1939739176
2	152	36	2511.5996591776
2	153	36.5	2509.0064994983
2	154	37	2506.4130835157
2	155	37.5	2503.8182156581
2	156	38	2501.222583251
2	157	38.5	2498.628201986
2	158	39	2496.0341355706
2	159	39.5	2493.4383296432
2	160	40	2490.8435546545
2	162	40.5	2488.2493534428
2	163	41	2485.655102922
2	164	41.5	2483.0601970108
2	165	42	2480.4656198064
2	166	42.5	2477.8701654738
2	167	43	2475.2771442261
2	168	43.5	2472.6828952592
2	169	44	2470.0874233606
2	170	44.5	2467.4937271242
2	171	45	2464.8991101197
2	172	45.5	2462.3044010754
2	173	46	2459.7108201223
2	174	46.5	2457.1153178372
2	175	47	2454.51942465
2	176	47.5	2452.1049758391
2	177	48	2450.4052049746
2	178	48.5	2448.7039828986
2	179	49	2447.0023738908
2	180	49.5	2445.4085903175
2	181	50	2445.022678212
2	182	50.5	2444.6394808504
2	183	51	2444.2161111271
2	184	51.5	2443.8162894422
2	185	52	2443.4598866852
2	186	52.5	2443.1468846647
2	187	53	2442.8773015719
2	188	53.5	2442.6511374067
2	189	54	2442.4766616474
2	190	54.5	2442.4362006881
2	191	55	2442.3958884771
2	192	55.5	2442.3652781798
2	193	56	2442.3360842583
2	194	56.5	2442.3120745602
2	195	57	2442.2866568071
2	196	57.5	2442.2598584306
2	197	58	2442.2316234537
2	198	58.5	2442.2020681472
2	199	59	2442.1713431246
2	200	59.5	2442.1391856663
2	201	60	2442.088958404
2	202	60.5	2441.8653528244
2	203	61	2442.0513644307
2	204	61.5	2442.4767216791
2	205	62	2442.9179392915
2	206	62.5	2443.3737840716
2	207	63	2443.8517347983
2	208	63.5	2444.4217074605
2	209	64	2445.0086127939
2	282	64.5	2445.6133645846
2	283	65	2446.2357824997
2	284	65.5	2446.8771158312
2	285	66	2447.5357486801
2	286	66.5	2448.1992618727
2	287	67	2448.862762871
2	288	67.5	2449.5261625623
2	289	68	2450.1895460316
2	363	68.5	2450.8528824874
2	437	69	2451.515964735
2	511	69.5	2452.1788810027
2	512	70	2452.8420530326
2	513	70.5	2453.5050027478
2	514	71	2453.751541972
2	515	71.5	2453.1490988773
2	517	72	2452.5468109112
2	518	72.5	2451.9442483508
2	519	73	2451.3416938266
2	520	73.5	2450.7399062938
3	2	0.5	3022.4123751242
3	4	1	3022.0353440456
3	5	1.5	3021.415566708
3	6	2	3020.5737050353
3	7	2.5	3019.5097961174
3	8	3	3018.1917037079
3	9	3.5	3016.6574269645
3	10	4	3014.916828474
3	11	4.5	3012.9631083431
3	12	5	3010.786754163
3	13	5.5	3008.3829504047
3	14	6	3005.7613130454
3	15	6.5	3002.9359130058
3	16	7	2999.8966010297
3	17	7.5	2996.6450931979
3	18	8	2993.1979513299
3	19	8.5	2989.5708009005
3	20	9	2985.7428247118
3	21	9.5	2981.7020527357
3	22	10	2977.4448199878
3	23	10.5	2972.9733398687
3	24	11	2968.2782439757
3	25	11.5	2963.345675773
3	26	12	2958.2165254327
3	27	12.5	2952.8822460799
3	28	13	2947.324840147
3	29	13.5	2941.5305228094
3	30	14	2935.5022383137
3	31	14.5	2929.2536646416
3	32	15	2922.7853528736
3	33	15.5	2916.1042734012
3	34	16	2909.1921338886
3	35	16.5	2902.0355493743
3	36	17	2894.6870059334
3	37	17.5	2887.1292580068
3	38	18	2879.3602866642
3	39	18.5	2871.3706477275
3	40	19	2863.1828552512
3	41	19.5	2854.7681257948
3	42	20	2846.1215159176
3	43	20.5	2837.262514228
3	44	21	2828.1779812351
3	45	21.5	2818.8548271619
3	46	22	2809.2967101177
3	47	22.5	2799.5272362214
3	48	23	2789.5400469452
3	49	23.5	2779.3127761837
3	50	24	2768.854027628
3	51	24.5	2758.171307452
3	52	25	2747.3892484205
3	53	25.5	2736.6020569913
3	54	26	2725.8232690776
3	55	26.5	2715.0306984866
3	56	27	2704.2475663582
3	57	27.5	2693.4540252248
3	58	28	2682.6668566819
3	59	28.5	2671.8768016752
3	60	29	2661.0903363554
3	61	29.5	2650.3012150247
3	62	30	2639.5158710303
3	63	30.5	2628.7249357523
3	64	31	2617.933025592
3	65	31.5	2607.148549634
3	144	32	2596.3586605554
3	145	32.5	2585.5723881116
3	146	33	2574.7860142523
3	147	33.5	2564.0041460712
3	148	34	2553.2090435969
3	149	34.5	2542.4141722191
3	150	35	2531.6244808035
3	151	35.5	2520.8341280958
3	152	36	2510.0478996225
3	153	36.5	2499.2664734768
3	154	37	2488.4839817137
3	155	37.5	2477.6954535758
3	156	38	2466.9037467167
3	157	38.5	2456.1172416564
3	158	39	2445.3320456278
3	159	39.5	2434.5396173326
3	160	40	2423.7514753109
3	162	40.5	2412.9657188477
3	163	41	2402.1797573743
3	164	41.5	2391.3910710234
3	165	42	2380.6031350009
3	166	42.5	2369.8111122204
3	167	43	2359.0292063234
3	168	43.5	2348.2421955122
3	169	44	2337.4500996917
3	170	44.5	2326.6653871592
3	171	45	2315.8768460304
3	172	45.5	2305.0913538206
3	173	46	2294.3107303949
3	174	46.5	2283.5221206537
3	175	47	2272.7318860656
3	176	47.5	2261.9062922131
3	177	48	2250.9511356279
3	178	48.5	2239.9866258716
3	179	49	2229.0196223091
3	180	49.5	2218.0480424091
3	181	50	2206.9662254723
3	182	50.5	2195.9623648738
3	183	51	2185.7672492983
3	184	51.5	2176.5675061094
3	185	52	2168.3668157468
3	186	52.5	2161.1647596415
3	187	53	2154.9617563616
3	188	53.5	2149.7578059072
3	189	54	2145.5507062245
3	190	54.5	2142.2868555058
3	191	55	2139.0350038158
3	192	55.5	2135.5093273697
3	193	56	2131.7345388792
3	194	56.5	2127.7155241957
3	195	57	2123.4608133426
3	196	57.5	2118.9749981649
3	197	58	2114.2487085368
3	198	58.5	2109.3014072562
3	199	59	2104.1583056375
3	200	59.5	2098.7754267631
3	201	60	2093.15354414
3	202	60.5	2087.3117893916
3	203	61	2081.2393657118
3	204	61.5	2074.9422290567
3	205	62	2068.410290055
3	206	62.5	2061.6618053745
3	207	63	2054.7280112086
3	208	63.5	2047.6005479479
3	209	64	2040.2613429669
3	282	64.5	2032.6989694415
3	283	65	2024.9156824239
3	284	65.5	2016.8958596112
3	285	66	2008.6597076971
3	286	66.5	2000.3625274682
3	287	67	1992.0654997295
3	288	67.5	1983.769738825
3	289	68	1975.4741807766
3	363	68.5	1967.1792106293
3	437	69	1958.8874193346
3	511	69.5	1950.5977036031
3	512	70	1942.3047895888
3	513	70.5	1934.0146556012
3	514	71	1925.7164624287
3	515	71.5	1917.4184819944
3	517	72	1909.1226382814
3	518	72.5	1900.8230123408
3	519	73	1892.5234970888
3	520	73.5	1884.234546287
4	2	0.5	0
5	2	0.5	1287.3631844854
5	4	1	1287.3971152697
5	5	1.5	1287.4522898303
5	6	2	1287.5264110332
5	7	2.5	1287.62113957
5	8	3	1287.7358140606
5	9	3.5	1287.8709316116
5	10	4	1288.0250132503
5	11	4.5	1288.1995021269
5	12	5	1288.3803450145
5	13	5.5	1288.5613218796
5	14	6	1288.7420702237
5	15	6.5	1288.9232484703
5	16	7	1289.1040265976
5	17	7.5	1289.2841547827
5	18	8	1289.4648170919
5	19	8.5	1289.6461204254
5	20	9	1289.8267889973
5	21	9.5	1290.0076002722
5	22	10	1290.1889275151
5	23	10.5	1290.3695223263
5	24	11	1290.5501811963
5	25	11.5	1292.6540879257
5	26	12	1297.5639150366
5	27	12.5	1302.8378810985
5	28	13	1306.2425469026
5	29	13.5	1308.2562478072
5	30	14	1306.9227445516
5	31	14.5	1302.2154254551
5	32	15	1297.5804711034
5	33	15.5	1293.6998546909
5	34	16	1292.3351438564
5	35	16.5	1292.4916450585
5	36	17	1292.6480421006
5	37	17.5	1292.8044126967
5	38	18	1292.9607878359
5	39	18.5	1293.1163144546
5	40	19	1293.2722946536
5	41	19.5	1293.42863945
5	42	20	1293.5848936621
5	43	20.5	1293.7413971183
5	44	21	1293.8970749625
5	45	21.5	1294.0528945931
5	46	22	1294.2089592799
5	47	22.5	1294.3654001004
5	48	23	1294.5220096927
5	49	23.5	1294.6781146179
5	50	24	1294.8335943035
5	51	24.5	1294.9893859179
5	52	25	1295.1450464214
5	53	25.5	1295.3011772342
5	54	26	1295.4576196355
5	55	26.5	1295.5972772553
5	56	27	1295.7222422449
5	57	27.5	1295.8614929161
5	58	28	1296.0132666022
5	59	28.5	1296.1741153949
5	60	29	1296.3396362179
5	61	29.5	1296.5189786375
5	62	30	1296.7132164361
5	63	30.5	1296.8634114895
5	64	31	1296.9796594604
5	65	31.5	1297.0746293006
5	144	32	1297.1695770607
5	145	32.5	1297.2645506554
5	146	33	1297.359677108
5	147	33.5	1297.0053546188
5	148	34	1296.5672262392
5	149	34.5	1296.0991005796
5	150	35	1295.6436717052
5	151	35.5	1295.2007070808
5	152	36	1294.7851236622
5	153	36.5	1294.5125636539
5	154	37	1294.4019141947
5	155	37.5	1294.4444998708
5	156	38	1294.4870621768
5	157	38.5	1294.5296114372
5	158	39	1294.5974091637
5	159	39.5	1294.7275687865
5	160	40	1294.8578931703
5	162	40.5	1294.9880754326
5	163	41	1295.1181630467
5	164	41.5	1295.2483270118
5	165	42	1295.3785065116
5	166	42.5	1295.5633635888
5	167	43	1296.3890562203
5	168	43.5	1296.9281189074
5	169	44	1297.3632236316
5	170	44.5	1297.6261571537
5	171	45	1297.8244374366
5	172	45.5	1298.090879785
5	173	46	1298.4361608364
5	174	46.5	1298.9411975638
5	175	47	1299.6294862628
5	176	47.5	1300.4202688612
5	177	48	1301.2810126139
5	178	48.5	1302.2060202378
5	179	49	1306.4554387565
5	180	49.5	1307.479871987
5	181	50	1308.5871834405
5	182	50.5	1309.6923060738
5	183	51	1310.7983917224
5	184	51.5	1311.9028234141
5	185	52	1313.006744389
5	186	52.5	1314.1134096591
5	187	53	1315.2160882422
5	188	53.5	1316.3219116668
5	189	54	1317.4548332968
5	190	54.5	1318.7731161946
5	191	55	1320.0808581468
5	192	55.5	1321.3880658024
5	193	56	1322.6369496842
5	194	56.5	1323.8475046512
5	195	57	1325.0410191318
5	196	57.5	1326.2178633368
5	197	58	1327.3984415013
5	198	58.5	1328.580488653
5	199	59	1329.7583094555
5	200	59.5	1330.8109268157
5	201	60	1331.4094457534
5	202	60.5	1332.0075523928
5	203	61	1336.1744907856
5	204	61.5	1343.4164503298
5	205	62	1350.6563991281
5	206	62.5	1357.8923533631
5	207	63	1365.1282095003
5	208	63.5	1372.3881822573
5	209	64	1379.6263951102
5	282	64.5	1386.8612839555
5	283	65	1394.0992780236
5	284	65.5	1401.3384782862
5	285	66	1408.5765585736
5	286	66.5	1415.8357403666
5	287	67	1423.0714272553
5	288	67.5	1430.3186811844
5	289	68	1437.5533606398
5	363	68.5	1444.7915825465
5	437	69	1452.0375515566
5	511	69.5	1459.2902829245
5	512	70	1466.5434528759
5	513	70.5	1473.7848625788
5	514	71	1481.031117663
5	515	71.5	1488.2612899493
5	517	72	1495.4986923692
5	518	72.5	1502.7408661222
5	519	73	1509.9986161843
5	520	73.5	1517.2376443937
6	2	0.5	1828.227079195
6	4	1	1827.4147938192
6	5	1.5	1826.0939434571
6	6	2	1824.3195203077
6	7	2.5	1822.0517682778
6	8	3	1819.3065204602
6	9	3.5	1816.071876375
6	10	4	1812.3832418723
6	11	4.5	1808.2060686797
6	12	5	1803.8767837603
6	13	5.5	1799.544291487
6	14	6	1795.2172698919
6	15	6.5	1790.8799566505
6	16	7	1786.5522220582
6	17	7.5	1782.2400467461
6	18	8	1777.9150847774
6	19	8.5	1773.5747770192
6	20	9	1769.2496651299
6	21	9.5	1764.9211369995
6	22	10	1760.5802568644
6	23	10.5	1756.2569107665
6	24	11	1751.9320311304
6	25	11.5	1748.6357935062
6	26	12	1748.9207613645
6	27	12.5	1749.2960902946
6	28	13	1744.5079231691
6	29	13.5	1738.9547530329
6	30	14	1732.2668259898
6	31	14.5	1727.1903217072
6	32	15	1722.99983963
6	33	15.5	1718.9507568683
6	34	16	1714.6683898177
6	35	16.5	1710.3294051997
6	36	17	1705.9933084091
6	37	17.5	1701.6579448339
6	38	18	1697.3224553019
6	39	18.5	1693.010490939
6	40	19	1688.6859510969
6	41	19.5	1684.3513028137
6	42	20	1680.0191659778
6	43	20.5	1675.6801188635
6	44	21	1671.363961787
6	45	21.5	1667.0438736901
6	46	22	1662.7169914255
6	47	22.5	1658.3796808859
6	48	23	1654.0376911573
6	49	23.5	1649.7096932884
6	50	24	1645.3990301434
6	51	24.5	1641.0797187919
6	52	25	1636.7640424827
6	53	25.5	1632.4353268854
6	54	26	1628.0979725132
6	55	26.5	1624.2259750105
6	56	27	1620.7613296257
6	57	27.5	1616.6744660605
6	58	28	1612.0453686332
6	59	28.5	1606.8896398498
6	60	29	1601.2832893953
6	61	29.5	1595.2087880848
6	62	30	1588.6297658775
6	63	30.5	1581.530589656
6	64	31	1574.2655425621
6	65	31.5	1567.0154586174
6	144	32	1559.7670602947
6	145	32.5	1552.5166897373
6	146	33	1545.2546498692
6	147	33.5	1538.0031152302
6	148	34	1530.7733739205
6	149	34.5	1523.5534358639
6	150	35	1516.3247553399
6	151	35.5	1509.0925059915
6	152	36	1501.846289414
6	153	36.5	1494.5961931935
6	154	37	1487.3409345467
6	155	37.5	1480.0942719905
6	156	38	1472.851586258
6	157	38.5	1465.6111204317
6	158	39	1458.3558320208
6	159	39.5	1451.1042794175
6	160	40	1443.8435475258
6	162	40.5	1436.5907336148
6	163	41	1429.3431928195
6	164	41.5	1422.0913982913
6	165	42	1414.8387382878
6	166	42.5	1407.595704902
6	167	43	1400.7349858135
6	168	43.5	1394.9460962126
6	169	44	1390.2735910024
6	170	44.5	1386.7135161944
6	171	45	1383.2086206041
6	172	45.5	1379.1482868316
6	173	46	1374.6234036069
6	174	46.5	1369.6693310766
6	175	47	1364.2835673774
6	176	47.5	1358.4462845782
6	177	48	1352.1681404524
6	178	48.5	1345.4212646699
6	179	49	1338.7021733411
6	180	49.5	1331.5336601986
6	181	50	1324.3572842069
6	182	50.5	1317.1950937416
6	183	51	1310.0266620703
6	184	51.5	1302.8689495297
6	185	52	1295.7145468947
6	186	52.5	1288.5423587523
6	187	53	1281.3960079355
6	188	53.5	1274.2292757118
6	189	54	1267.0766042247
6	190	54.5	1259.9630619744
6	191	55	1252.8548516864
6	192	55.5	1245.7495455584
6	193	56	1238.6269551748
6	194	56.5	1231.5193399116
6	195	57	1224.386536085
6	196	57.5	1217.2831780165
6	197	58	1210.1572820013
6	198	58.5	1203.0225192718
6	199	59	1195.9132665219
6	200	59.5	1188.7771325214
6	201	60	1181.5869250158
6	202	60.5	1174.4016705891
6	203	61	1170.008220369
6	204	61.5	1170.374673482
6	205	62	1170.7601827504
6	206	62.5	1170.9340754179
6	207	63	1170.9734676257
6	208	63.5	1171.0129911248
6	209	64	1171.0523961624
6	282	64.5	1171.0917831045
6	283	65	1171.131186951
6	284	65.5	1171.1705973642
6	285	66	1171.2100016801
6	286	66.5	1171.2972164741
6	287	67	1171.4328529984
6	288	67.5	1171.5009855609
6	289	68	1171.5199146019
6	363	68.5	1171.5388529105
6	437	69	1171.5177570311
6	511	69.5	1171.4805782028
6	512	70	1171.4433971271
6	513	70.5	1171.4062763359
6	514	71	1171.2589158835
6	515	71.5	1171.0261147637
6	517	72	1170.7930808431
6	518	72.5	1170.5598932933
6	519	73	1170.3262042087
6	520	73.5	1170.0931179402
7	2	0.5	0
8	2	0.5	243.31602054439
8	4	1	243.30913937406
8	5	1.5	243.29782204749
8	6	2	243.28247408115
8	7	2.5	243.26342766208
8	8	3	243.24040584138
8	9	3.5	243.21380397596
8	10	4	243.18310993013
8	11	4.5	243.1484340321
8	12	5	243.10924115102
8	13	5.5	243.0663145869
8	14	6	243.01953350392
8	15	6.5	242.96903013124
8	16	7	242.91449734592
8	17	7.5	242.85595049639
8	18	8	242.79419269238
8	19	8.5	242.73295519606
8	20	9	242.26508669544
8	21	9.5	241.68610673898
8	22	10	241.10712287819
8	23	10.5	240.52771094977
8	24	11	239.94936719164
8	25	11.5	239.37215495552
8	26	12	238.79357286438
8	27	12.5	238.21557328652
8	28	13	237.63733651803
8	29	13.5	237.05823889328
8	30	14	236.48010755552
8	31	14.5	235.90121453989
8	32	15	235.80409846641
8	33	15.5	235.0742950117
8	34	16	232.5949971755
8	35	16.5	230.11229897349
8	36	17	227.62779660232
8	37	17.5	225.14764125971
8	38	18	222.66813646222
8	39	18.5	220.19162743364
8	40	19	217.70837988122
8	41	19.5	215.22731687815
8	42	20	212.75282488286
8	43	20.5	210.27264811459
8	44	21	207.79659313092
8	45	21.5	205.31452671322
8	46	22	202.83089691552
8	47	22.5	200.3480367423
8	48	23	197.87148526474
8	49	23.5	195.38814299658
8	50	24	192.90354517207
8	51	24.5	190.41885485034
8	52	25	187.93716550677
8	53	25.5	185.45432597469
8	54	26	182.97469523118
8	55	26.5	180.49361961486
8	56	27	179.61417745787
8	57	27.5	178.8559691062
8	58	28	178.09591954772
8	59	28.5	177.33738778485
8	60	29	176.57814397954
8	61	29.5	175.81934606808
8	62	30	175.05880281387
8	63	30.5	174.29889175657
8	64	31	173.54065930506
8	65	31.5	172.78142890846
8	144	32	172.02238947642
8	145	32.5	171.26402847329
8	146	33	170.50400739827
8	147	33.5	169.79079523124
8	148	34	169.44349024096
8	149	34.5	169.49539697205
8	150	35	169.59012659499
8	151	35.5	169.6847860238
8	152	36	169.7796467169
8	153	36.5	169.87425518362
8	154	37	170.12243900937
8	155	37.5	170.40556825069
8	156	38	170.68902704504
8	157	38.5	170.97228521679
8	158	39	171.25559044897
8	159	39.5	171.5390419754
8	160	40	171.82247454638
8	162	40.5	172.10592645709
8	163	41	172.38946074515
8	164	41.5	172.6729433944
8	165	42	172.95657042495
8	166	42.5	173.23988411739
8	167	43	173.61277161411
8	168	43.5	174.14280516421
8	169	44	174.67226522055
8	170	44.5	176.09652246546
8	171	45	178.58705503435
8	172	45.5	181.07482282538
8	173	46	183.56480070169
8	174	46.5	186.05373565783
8	175	47	188.58123323927
8	176	47.5	191.17984637397
8	177	48	193.77774498193
8	178	48.5	196.67387435597
8	179	49	200.19107397192
8	180	49.5	203.72778743366
8	181	50	207.26647331018
8	182	50.5	210.79940940742
8	183	51	214.33261358016
8	184	51.5	217.86818029277
8	185	52	221.40024221234
8	186	52.5	224.93759651517
8	187	53	228.4735406317
8	188	53.5	232.01025300391
8	189	54	235.5882561797
8	190	54.5	239.87695087795
8	191	55	244.16687112593
8	192	55.5	248.46016390785
8	193	56	252.75870260666
8	194	56.5	257.05186138733
8	195	57	261.35513759439
8	196	57.5	265.64738122816
8	197	58	269.9436453149
8	198	58.5	274.23756451625
8	199	59	278.52956969908
8	200	59.5	282.82938435557
8	201	60	287.12722960976
8	202	60.5	291.42781023402
8	203	61	295.66003877192
8	204	61.5	299.59344093536
8	205	62	303.53082128626
8	206	62.5	307.46605655144
8	207	63	311.39996498288
8	208	63.5	315.34040090628
8	209	64	319.27257643803
8	282	64.5	323.20724542509
8	283	65	327.14609402395
8	284	65.5	331.08839822107
8	285	66	335.02932583459
8	286	66.5	338.97178067884
8	287	67	342.91035109595
8	288	67.5	346.84438368573
8	289	68	350.78055117372
8	363	68.5	354.71536925121
8	437	69	358.64867783256
8	511	69.5	362.36900405621
8	512	70	365.25437051244
8	513	70.5	368.09528447106
8	514	71	370.93264405918
8	515	71.5	373.77346710279
8	517	72	376.61451679771
8	518	72.5	379.45626523183
8	519	73	382.31811501482
8	520	73.5	385.22572085948
9	2	0.5	2497.1688996973
9	4	1	2496.3316489356
9	5	1.5	2494.9546389403
9	6	2	2493.0872100228
9	7	2.5	2490.7697802708
9	8	3	2487.9686525557
9	9	3.5	2484.7319310447
9	10	4	2480.9973027781
9	11	4.5	2476.7781916922
9	12	5	2472.0094869528
9	13	5.5	2466.7864948306
9	14	6	2461.0945128687
9	15	6.5	2454.9496297827
9	16	7	2448.3144770721
9	17	7.5	2441.1909222081
9	18	8	2433.5380245307
9	19	8.5	2425.5499333367
9	20	9	2417.5871251784
9	21	9.5	2409.6034747697
9	22	10	2401.6197705222
9	23	10.5	2393.6301635792
9	24	11	2385.6552858138
9	25	11.5	2377.6960107926
9	26	12	2369.7178466134
9	27	12.5	2361.7477148054
9	28	13	2353.7743123379
9	29	13.5	2345.7890393818
9	30	14	2337.8170907153
9	31	14.5	2329.834639146
9	32	15	2321.8400533656
9	33	15.5	2313.9513235185
9	34	16	2306.358641657
9	35	16.5	2298.7555464059
9	36	17	2291.1469260082
9	37	17.5	2283.5516180908
9	38	18	2275.9583024252
9	39	18.5	2268.3741610982
9	40	19	2260.7693834985
9	41	19.5	2253.1712959325
9	42	20	2245.5933316341
9	43	20.5	2237.9979581023
9	44	21	2230.4152072575
9	45	21.5	2222.814046802
9	46	22	2215.2080986015
9	47	22.5	2207.6045073243
9	48	23	2200.0202360004
9	49	23.5	2192.4151683394
9	50	24	2184.8062556228
9	51	24.5	2177.1970596397
9	52	25	2169.5970539479
9	53	25.5	2161.9935258832
9	54	26	2154.399824515
9	55	26.5	2146.8016983224
9	56	27	2138.8746753475
9	57	27.5	2130.9304732559
9	58	28	2122.9669797411
9	59	28.5	2115.019389079
9	60	29	2107.0643379204
9	61	29.5	2099.1139586596
9	62	30	2091.1452923995
9	63	30.5	2083.1832500445
9	64	31	2075.2387954444
9	65	31.5	2067.2838847786
9	144	32	2059.3309749616
9	145	32.5	2051.3851734512
9	146	33	2043.4219783731
9	147	33.5	2035.4573568702
9	148	34	2027.4610729283
9	149	34.5	2019.4810722796
9	150	35	2011.4843132757
9	151	35.5	2003.4934798256
9	152	36	1995.4856563201
9	153	36.5	1987.4991249219
9	154	37	1979.6536396155
9	155	37.5	1971.6674700528
9	156	38	1963.6720048534
9	157	38.5	1955.6821985766
9	158	39	1947.6910648718
9	159	39.5	1939.6958046798
9	160	40	1931.7010791581
9	162	40.5	1923.7058081245
9	163	41	1915.7082134867
9	164	41.5	1907.7120754188
9	165	42	1899.7118648142
9	166	42.5	1891.7204924747
9	167	43	1883.7359081525
9	168	43.5	1875.7509871386
9	169	44	1867.7747057695
9	170	44.5	1859.9732490843
9	171	45	1852.3763415627
9	172	45.5	1844.7878674828
9	173	46	1837.1926519489
9	174	46.5	1829.6006176481
9	175	47	1822.0174402529
9	176	47.5	1814.4555595871
9	177	48	1806.8957581716
9	178	48.5	1799.471004121
9	179	49	1792.3053684356
9	180	49.5	1785.131542041
9	181	50	1777.9537148234
9	182	50.5	1770.7875503879
9	183	51	1763.6208421923
9	184	51.5	1756.4493418494
9	185	52	1749.2849505851
9	186	52.5	1742.1098243156
9	187	53	1734.9375584517
9	188	53.5	1727.7637342662
9	189	54	1720.6248370688
9	190	54.5	1713.8965561865
9	191	55	1707.166352611
9	192	55.5	1700.4308580654
9	193	56	1693.6871335097
9	194	56.5	1686.9518491905
9	195	57	1680.2006922364
9	196	57.5	1673.4668436376
9	197	58	1666.7266875869
9	198	58.5	1659.9902102891
9	199	59	1653.2567357821
9	200	59.5	1646.511009451
9	201	60	1639.7683727993
9	202	60.5	1633.0214447873
9	203	61	1626.2429542998
9	204	61.5	1619.292198956
9	205	62	1612.3344137166
9	206	62.5	1605.3787845438
9	207	63	1598.4238969414
9	208	63.5	1591.4574691672
9	209	64	1584.5056452155
9	282	64.5	1577.5494130002
9	283	65	1570.5857915115
9	284	65.5	1563.6160607543
9	285	66	1556.648763706
9	286	66.5	1549.6787666157
9	287	67	1542.7156369323
9	288	67.5	1535.7605298255
9	289	68	1528.8016483616
9	363	68.5	1521.8451525643
9	437	69	1514.8913254561
9	511	69.5	1507.8183834413
9	512	70	1500.3619085737
9	513	70.5	1492.8893472515
9	514	71	1485.4261351209
9	515	71.5	1477.9538129363
9	517	72	1470.4808945814
9	518	72.5	1463.006138307
9	519	73	1455.5258132825
9	520	73.5	1448.0641734777
10	2	0.5	0
11	2	0.5	1630.0247913966
11	4	1	1630.0082108838
11	5	1.5	1629.9812774651
11	6	2	1629.8417228467
11	7	2.5	1629.598968075
11	8	3	1629.3054750046
11	9	3.5	1628.9658557308
11	10	4	1628.5728588598
11	11	4.5	1628.1282675097
11	12	5	1627.6355270261
11	13	5.5	1627.0910144426
11	14	6	1626.4940830157
11	15	6.5	1625.8345458684
11	16	7	1625.0961785339
11	17	7.5	1624.322276724
11	18	8	1623.6989221299
11	19	8.5	1623.0772683261
11	20	9	1622.4546982928
11	21	9.5	1621.8158716178
11	22	10	1621.1479699811
11	23	10.5	1620.4805658566
11	24	11	1619.8128705663
11	25	11.5	1619.1453593093
11	26	12	1618.477649382
11	27	12.5	1617.8102521775
11	28	13	1617.1432332682
11	29	13.5	1616.4748463017
11	30	14	1615.5620805648
11	31	14.5	1614.8538707139
11	32	15	1614.1444828574
11	33	15.5	1613.4359561502
11	34	16	1612.7275783645
11	35	16.5	1612.0191638161
11	36	17	1611.3111493622
11	37	17.5	1610.6013700862
11	38	18	1609.9844655549
11	39	18.5	1609.3916057335
11	40	19	1608.7978704775
11	41	19.5	1608.2024692262
11	42	20	1607.5996517522
11	43	20.5	1606.9399328879
11	44	21	1606.2808350986
11	45	21.5	1605.6199371605
11	46	22	1604.9601680936
11	47	22.5	1604.3006430242
11	48	23	1603.6409381006
11	49	23.5	1602.9812482408
11	50	24	1602.3200556216
11	51	24.5	1601.6594453757
11	52	25	1600.9992167008
11	53	25.5	1600.3514186537
11	54	26	1599.7119629709
11	55	26.5	1599.074586045
11	56	27	1598.4685066192
11	57	27.5	1598.2871992715
11	58	28	1600.1327301846
11	59	28.5	1604.5245775143
11	60	29	1608.8714928426
11	61	29.5	1613.2086702916
11	62	30	1617.5543518139
11	63	30.5	1621.8981999634
11	64	31	1626.2505997774
11	65	31.5	1630.5994169144
11	144	32	1634.9475009422
11	145	32.5	1639.3068751593
11	146	33	1643.6594599589
11	147	33.5	1648.0111841358
11	148	34	1652.3707087236
11	149	34.5	1656.7378211758
11	150	35	1661.1153184619
11	151	35.5	1665.4786211952
11	152	36	1669.8497660584
11	153	36.5	1674.2195324327
11	154	37	1678.5747012508
11	155	37.5	1682.9394769202
11	156	38	1687.2844451248
11	157	38.5	1691.6535222295
11	158	39	1696.007967332
11	159	39.5	1700.3603826565
11	160	40	1704.7219716228
11	162	40.5	1709.0685501357
11	163	41	1713.421631285
11	164	41.5	1717.772810848
11	165	42	1722.1196195115
11	166	42.5	1726.4788973695
11	167	43	1730.8314410215
11	168	43.5	1735.1881622528
11	169	44	1739.5504760824
11	170	44.5	1743.9007958359
11	171	45	1748.2549870936
11	172	45.5	1752.6101947357
11	173	46	1756.9728058497
11	174	46.5	1761.3346374495
11	175	47	1765.6900989362
11	176	47.5	1770.0566241341
11	177	48	1774.41547178
11	178	48.5	1778.7760363325
11	179	49	1783.1222143166
11	180	49.5	1787.4824368078
11	181	50	1791.8482998944
11	182	50.5	1796.1887652293
11	183	51	1800.5258676313
11	184	51.5	1804.8860753857
11	185	52	1809.2343602234
11	186	52.5	1813.5937689443
11	187	53	1817.9450976856
11	188	53.5	1822.3073966277
11	189	54	1826.6539629906
11	190	54.5	1830.9981052334
11	191	55	1835.3537803019
11	192	55.5	1839.7118837045
11	193	56	1844.065977226
11	194	56.5	1848.4172813307
11	195	57	1852.7685238142
11	196	57.5	1857.1245474649
11	197	58	1861.4775959136
11	198	58.5	1865.8314805964
11	199	59	1870.1833637168
11	200	59.5	1874.4006811352
11	201	60	1877.8581749013
11	202	60.5	1881.7474716639
11	203	61	1886.0634982631
11	204	61.5	1890.440647183
11	205	62	1894.7923598661
11	206	62.5	1899.1637865725
11	207	63	1903.5218174245
11	208	63.5	1907.8794477829
11	209	64	1912.2461129271
11	282	64.5	1916.6044484593
11	283	65	1920.9571130626
11	284	65.5	1925.1996808833
11	285	66	1929.5593684167
11	286	66.5	1933.9107909766
11	287	67	1938.2639543132
11	288	67.5	1942.6266056013
11	289	68	1946.9707487051
11	363	68.5	1951.3157593348
11	437	69	1955.6733094592
11	511	69.5	1960.0258806145
11	512	70	1963.988371341
11	513	70.5	1967.271371744
11	514	71	1971.1146937864
11	515	71.5	1975.4264215742
11	517	72	1979.7885677466
11	518	72.5	1984.1448536554
11	519	73	1988.5080524788
11	520	73.5	1992.8635246024
12	2	0.5	360.29248770513
12	4	1	361.13602129091
12	5	1.5	362.5062589664
12	6	2	364.3352372963
12	7	2.5	366.71067855973
12	8	3	369.58261201344
12	9	3.5	372.90590667538
12	10	4	376.75151999667
12	11	4.5	381.10200353526
12	12	5	385.9236433683
12	13	5.5	391.25189150218
12	14	6	397.09307655133
12	15	6.5	403.44417801127
12	16	7	410.23715748917
12	17	7.5	417.44994158298
12	18	8	424.71971334238
12	19	8.5	431.96964991186
12	20	9	439.23027185909
12	21	9.5	446.49580528866
12	22	10	453.75826318469
12	23	10.5	461.01531136036
12	24	11	468.27552554011
12	25	11.5	475.5337386271
12	26	12	482.7941119615
12	27	12.5	490.05108489189
12	28	13	497.30394441355
12	29	13.5	504.57167956606
12	30	14	511.7895232439
12	31	14.5	519.03953384049
12	32	15	526.30160379037
12	33	15.5	533.55485807359
12	34	16	540.80658783298
12	35	16.5	548.05869393703
12	36	17	555.30670423526
12	37	17.5	562.57278118469
12	38	18	569.83576083463
12	39	18.5	577.08640474733
12	40	19	584.34775517788
12	41	19.5	591.61120824516
12	42	20	598.88374377042
12	43	20.5	606.13970067352
12	44	21	613.38882664684
12	45	21.5	620.65775166359
12	46	22	627.91426072363
12	47	22.5	635.16808616463
12	48	23	642.42388973851
12	49	23.5	649.67952763475
12	50	24	656.95169372018
12	51	24.5	664.21745453775
12	52	25	671.47901862208
12	53	25.5	678.73389636446
12	54	26	685.99258249253
12	55	26.5	693.2482074732
12	56	27	700.15127387363
12	57	27.5	706.0995322438
12	58	28	711.40140250884
12	59	28.5	713.50090264063
12	60	29	713.69153064582
12	61	29.5	713.86569899227
12	62	30	714.04020883795
12	63	30.5	714.21464506071
12	64	31	714.38942469377
12	65	31.5	714.56406045612
12	144	32	714.73866677936
12	145	32.5	714.91372648347
12	146	33	715.08851354383
12	147	33.5	715.26326604467
12	148	34	715.43833178747
12	149	34.5	715.61370223667
12	150	35	715.78948970977
12	151	35.5	715.96470717154
12	152	36	716.1402395498
12	153	36.5	716.31571657304
12	154	37	716.49060740042
12	155	37.5	716.66588401143
12	156	38	716.84036521148
12	157	38.5	717.01581455581
12	158	39	717.19067632034
12	159	39.5	717.36545657553
12	160	40	717.54060521815
12	162	40.5	717.71515108366
12	163	41	717.88995807711
12	164	41.5	718.0646887077
12	165	42	718.23924381565
12	166	42.5	718.41429965012
12	167	43	718.58908505924
12	168	43.5	718.76403822657
12	169	44	718.93921597674
12	170	44.5	719.15372188389
12	171	45	719.36859831586
12	172	45.5	719.58352490515
12	173	46	719.79881685134
12	174	46.5	720.01407032926
12	175	47	720.22900944576
12	176	47.5	720.44449454919
12	177	48	720.65960077103
12	178	48.5	720.87479172088
12	179	49	721.08927270304
12	180	49.5	721.30444677174
12	181	50	721.51989920065
12	182	50.5	721.73409826774
12	183	51	721.94818563107
12	184	51.5	722.16349143907
12	185	52	722.37820849568
12	186	52.5	722.59347484726
12	187	53	722.80834221188
12	188	53.5	723.0237512812
12	189	54	723.23838348035
12	190	54.5	723.45289597753
12	191	55	723.66797796264
12	192	55.5	723.8831798574
12	193	56	724.09818374552
12	194	56.5	724.31304989383
12	195	57	724.52791299857
12	196	57.5	724.74301219638
12	197	58	724.95796447899
12	198	58.5	725.17295805458
12	199	59	725.38785279449
12	200	59.5	725.59610271826
12	201	60	725.76683276799
12	202	60.5	725.94830236491
12	203	61	726.10342382826
12	204	61.5	726.26039742585
12	205	62	726.34416091442
12	206	62.5	726.42830386665
12	207	63	726.51218897011
12	208	63.5	726.59606636502
12	209	64	726.68011766486
12	282	64.5	726.76400863286
12	283	65	726.84779044427
12	284	65.5	726.95245877374
12	285	66	727.08402530476
12	286	66.5	727.2153424155
12	287	67	727.34671206027
12	288	67.5	727.47836803179
12	289	68	727.60946546309
12	363	68.5	727.74058907479
12	437	69	727.87209110335
12	511	69.5	728.00344287697
12	512	70	728.10784678347
12	513	70.5	728.18306377344
12	514	71	728.29019937292
12	515	71.5	728.4348275587
12	517	72	728.59292192478
12	518	72.5	728.79428598657
12	519	73	728.9959695898
12	520	73.5	729.19729603548
13	4	1	0.96315724250003
13	5	1.5	1.4163082134939
13	6	2	1.8730117260368
13	7	2.5	2.3571391038766
13	8	3	2.8579845126981
13	9	3.5	3.226170594006
13	10	4	3.6683751018142
13	11	4.5	4.096395278115
13	12	5	4.5673459860759
13	13	5.5	5.0041966364236
13	14	6	5.4528541425599
13	15	6.5	5.8326756184112
13	16	7	6.3185249040166
13	17	7.5	6.8164614663955
13	18	8	7.2483342648793
13	19	8.5	7.6306189449347
13	20	9	8.0300661469979
13	21	9.5	8.4971491859045
13	22	10	8.9360353771627
13	23	10.5	9.3978944510204
13	24	11	9.8634379853105
13	25	11.5	10.317759716001
13	26	12	10.714327577011
13	27	12.5	11.151482744485
13	28	13	11.636657540172
13	29	13.5	12.128458942918
13	30	14	12.574270750012
13	31	14.5	13.063242460064
13	32	15	13.48613080303
13	33	15.5	13.890868600824
13	34	16	14.428135147968
13	35	16.5	14.888480121305
13	36	17	15.285900480401
13	37	17.5	15.704661329704
13	38	18	16.182874826592
13	39	18.5	16.576163220711
13	40	19	17.04590348
13	41	19.5	17.511949481893
13	42	20	17.948874973443
13	43	20.5	18.398306984392
13	44	21	18.875087373511
13	45	21.5	19.375399535641
13	46	22	19.816389375537
13	47	22.5	20.27372128587
13	48	23	20.748558687948
13	49	23.5	21.214605076791
13	50	24	21.723559591782
13	51	24.5	22.158030788045
13	52	25	22.180865816828
13	53	25.5	22.164680755404
13	54	26	22.164840675383
13	55	26.5	22.218768838248
13	56	27	22.171807797495
13	57	27.5	22.215426433589
13	58	28	22.199853998441
13	59	28.5	22.167198591596
13	60	29	22.16194917758
13	61	29.5	22.206758969524
13	62	30	22.178201122959
13	63	30.5	22.214963697381
13	64	31	22.198859407622
13	65	31.5	22.2038517011
13	144	32	22.186262325868
13	145	32.5	22.202624620232
13	146	33	22.219863656233
13	147	33.5	22.167788052191
13	148	34	22.202800164078
13	149	34.5	22.217187748034
13	150	35	22.195973929828
13	151	35.5	22.211866106712
13	152	36	22.170279956269
13	153	36.5	22.163523615594
13	154	37	22.168545345282
13	155	37.5	22.167798402975
13	156	38	22.186826498653
13	157	38.5	22.193691120511
13	158	39	22.185229519703
13	159	39.5	22.177593529359
13	160	40	22.19146439536
13	162	40.5	22.162687323107
13	163	41	22.197801454882
13	164	41.5	22.217959166225
13	165	42	22.204708646093
13	166	42.5	22.200998968482
13	167	43	22.165243705269
13	168	43.5	22.2156477495
13	169	44	22.215933352709
13	170	44.5	22.165281229946
13	171	45	22.195793533404
13	172	45.5	22.168840515916
13	173	46	22.177717501842
13	174	46.5	22.185965690343
13	175	47	22.214475051789
13	176	47.5	22.215324746016
13	177	48	22.167504116255
13	178	48.5	22.193515154943
13	179	49	22.177530833464
13	180	49.5	22.169618578316
13	181	50	22.206625824641
13	182	50.5	21.580384363871
13	183	51	19.616930420607
13	184	51.5	17.616930420607
13	185	52	15.616930420607
13	186	52.5	13.61776835161
13	187	53	11.61776835161
13	188	53.5	9.6177683516095
13	189	54	7.621709618162
13	190	54.5	6.1442299241564
13	191	55	6.7442299241564
13	192	55.5	7.255018803835
13	193	56	7.7594606428632
13	194	56.5	8.2108324556184
13	195	57	8.7083027334084
13	196	57.5	9.1773656754932
13	197	58	9.6408373741704
13	198	58.5	10.031210490148
13	199	59	10.484874080326
13	200	59.5	10.936389134316
13	201	60	11.464534922367
13	202	60.5	11.840224058138
13	203	61	12.359627453148
13	204	61.5	12.792568083814
13	205	62	13.280919353938
13	206	62.5	13.686657109763
13	207	63	14.05839870647
13	208	63.5	14.460127212111
13	209	64	14.901902201068
13	282	64.5	15.351649767076
13	283	65	15.798307207603
13	284	65.5	16.258607918065
13	285	66	16.628750642347
13	286	66.5	16.650571294082
13	287	67	16.616772580417
13	288	67.5	16.650385994595
13	289	68	16.654690879406
13	363	68.5	16.664125773064
13	437	69	16.651049871976
13	511	69.5	16.62023888641
13	512	70	16.626875846363
13	513	70.5	16.616585292728
13	514	71	16.641551270909
13	515	71.5	16.641791198403
13	517	72	16.653362404625
13	518	72.5	16.635026598955
13	519	73	16.638479435425
13	520	73.5	16.632992752376
14	4	1	2.0116060111359
14	5	1.5	3.0081261322249
14	6	2	3.9596735773885
14	7	2.5	4.9147222280081
14	8	3	5.889326381562
14	9	3.5	6.8788821249406
14	10	4	7.7938837797867
14	11	4.5	8.7023372510245
14	12	5	8.6754488682753
14	13	5.5	8.6928926480847
14	14	6	8.6739304756915
14	15	6.5	8.6486439504597
14	16	7	8.6071240203461
14	17	7.5	8.6096484815405
14	18	8	8.6765494632844
14	19	8.5	8.691906216222
14	20	9	8.6895699835668
14	21	9.5	8.6917188767746
14	22	10	8.6876668885426
14	23	10.5	8.6548053989519
14	24	11	8.6498789012042
14	25	11.5	9.3105579491106
14	26	12	10.306217582808
14	27	12.5	11.226979594259
14	28	13	12.140981362973
14	29	13.5	13.117551298785
14	30	14	13.969481934591
14	31	14.5	13.8435789962
14	32	15	11.61471192603
14	33	15.5	10.5303115453
14	34	16	8.727996280003
14	35	16.5	8.6786673143745
14	36	17	8.6113086891018
14	37	17.5	8.6799250831228
14	38	18	8.7312646191504
14	39	18.5	8.6191957829014
14	40	19	8.6255628256739
14	41	19.5	8.640095662757
14	42	20	8.7224545112398
14	43	20.5	8.7102991879225
14	44	21	8.6680538501061
14	45	21.5	8.687159623318
14	46	22	8.6143776310661
14	47	22.5	8.701649005111
14	48	23	8.694289473822
14	49	23.5	8.6238870165713
14	50	24	8.6729226478452
14	51	24.5	8.6525806385588
14	52	25	8.6307179475512
14	53	25.5	8.6969431934116
14	54	26	8.6335482753773
14	55	26.5	6.8635875598246
14	56	27	7.4535875598246
14	57	27.5	8.6192236613829
14	58	28	9.7195325001443
14	59	28.5	10.723088909916
14	60	29	11.642868467171
14	61	29.5	12.546221441766
14	62	30	13.645800116907
14	63	30.5	14.559675122629
14	64	31	14.495002092735
14	65	31.5	14.541947132022
14	144	32	14.435276740821
14	145	32.5	14.540433851882
14	146	33	14.548035021111
14	147	33.5	14.47648254187
14	148	34	14.488430435123
14	149	34.5	14.498726023423
14	150	35	14.506795355849
14	151	35.5	14.456248789478
14	152	36	14.534164740203
14	153	36.5	14.453060064965
14	154	37	14.550677891778
14	155	37.5	14.437574530322
14	156	38	14.500435655181
14	157	38.5	14.486342127523
14	158	39	14.5276124709
14	159	39.5	14.533853154012
14	160	40	14.481712085273
14	162	40.5	14.444666899104
14	163	41	14.477096496198
14	164	41.5	14.433516102244
14	165	42	14.500294024718
14	166	42.5	14.460819787759
14	167	43	12.996012484405
14	168	43.5	10.757507540396
14	169	44	8.5075075403963
14	170	44.5	6.2575075403963
14	171	45	7.5575075403963
14	172	45.5	8.5096150686278
14	173	46	9.460639632406
14	174	46.5	10.345157276952
14	175	47	11.201046515362
14	176	47.5	12.154825661761
14	177	48	13.017918653771
14	178	48.5	14.03233964305
14	179	49	14.501747551862
14	180	49.5	14.491342554851
14	181	50	14.506633412178
14	182	50.5	14.548575382772
14	183	51	14.54822373191
14	184	51.5	14.527033428179
14	185	52	14.512090891599
14	186	52.5	14.554619557992
14	187	53	14.447408475936
14	188	53.5	14.53172453887
14	189	54	14.480762663406
14	190	54.5	14.438121919028
14	191	55	14.558232903694
14	192	55.5	14.542846894631
14	193	56	14.554609659483
14	194	56.5	14.477540882199
14	195	57	14.552038549333
14	196	57.5	14.437921243931
14	197	58	14.543844697994
14	198	58.5	14.561337858656
14	199	59	14.44387854241
14	200	59.5	14.43810947138
14	201	60	14.526182060141
14	202	60.5	14.466360179844
14	203	61	14.437450976564
14	204	61.5	14.505227556291
14	205	62	14.526362177435
14	206	62.5	14.55133236068
14	207	63	14.49503661455
14	208	63.5	14.529871659581
14	209	64	14.439649571012
14	282	64.5	14.483768474983
14	283	65	14.506621771868
14	284	65.5	14.494738701437
14	285	66	14.441553623079
14	286	66.5	14.514941137514
14	287	67	14.443122876046
14	288	67.5	14.512384618378
14	289	68	14.53218452505
14	363	68.5	14.500015057576
14	437	69	14.513352883699
14	511	69.5	14.535425908015
14	512	70	14.492530892446
14	513	70.5	14.489375022831
14	514	71	14.46081409977
14	515	71.5	14.521259556375
14	517	72	14.449552068493
14	518	72.5	14.556927578434
14	519	73	14.549219611652
14	520	73.5	14.520987667976
15	4	1	2.1311671961367
15	5	1.5	3.1435446060073
15	6	2	4.0758362758249
15	7	2.5	4.9786327199658
15	8	3	5.9862471878199
15	9	3.5	6.8543556765883
15	10	4	7.8430037378912
15	11	4.5	8.8951558063409
15	12	5	9.8639746389535
15	13	5.5	10.884495384309
15	14	6	11.750328246459
15	15	6.5	12.627083729126
15	16	7	13.680306829451
15	17	7.5	14.66311544073
15	18	8	15.631815495721
15	19	8.5	15.944889718909
15	20	9	15.933076143798
15	21	9.5	16.02704194391
15	22	10	16.012680860139
15	23	10.5	16.046975723119
15	24	11	15.991224413538
15	25	11.5	15.957330957596
15	26	12	16.006943297596
15	27	12.5	16.009157720807
15	28	13	15.938132288733
15	29	13.5	15.992241283309
15	30	14	16.031916167154
15	31	14.5	15.994183716753
15	32	15	16.050449797989
15	33	15.5	15.941528713664
15	34	16	16.035602408029
15	35	16.5	15.973466740693
15	36	17	16.029840288526
15	37	17.5	15.964652343749
15	38	18	16.008472060718
15	39	18.5	15.930056551905
15	40	19	16.034577265534
15	41	19.5	15.948862201169
15	42	20	15.927917716687
15	43	20.5	16.009976792937
15	44	21	15.924553301391
15	45	21.5	15.971704688843
15	46	22	15.946442086124
15	47	22.5	16.03932738042
15	48	23	15.927726235763
15	49	23.5	15.9891791369
15	50	24	15.975600421213
15	51	24.5	16.029597706406
15	52	25	15.938564928819
15	53	25.5	16.017461132803
15	54	26	15.986677580064
15	55	26.5	15.991367802329
15	56	27	15.941091452837
15	57	27.5	15.935278603801
15	58	28	15.940887910151
15	59	28.5	16.015791453997
15	60	29	16.044431088586
15	61	29.5	15.951873005662
15	62	30	16.049907877285
15	63	30.5	15.949109528975
15	64	31	15.976399861407
15	65	31.5	16.039754499081
15	144	32	15.938170450274
15	145	32.5	16.040572454352
15	146	33	15.990110049562
15	147	33.5	16.007202510792
15	148	34	16.044637274847
15	149	34.5	15.966868247155
15	150	35	15.996379570738
15	151	35.5	15.960602580668
15	152	36	15.972599685637
15	153	36.5	15.933823426839
15	154	37	15.944410204946
15	155	37.5	15.951852494351
15	156	38	16.025625474553
15	157	38.5	16.007644835604
15	158	39	15.980006347718
15	159	39.5	16.047505428088
15	160	40	16.038682358186
15	162	40.5	16.017372143357
15	163	41	15.98595333556
15	164	41.5	15.999757634413
15	165	42	15.967693241095
15	166	42.5	16.016159347687
15	167	43	15.95098133998
15	168	43.5	15.98331078985
15	169	44	15.949522169975
15	170	44.5	15.938722888315
15	171	45	15.994377072174
15	172	45.5	15.960719714193
15	173	46	16.036747667473
15	174	46.5	16.003411920378
15	175	47	15.926190744492
15	176	47.5	16.028492913561
15	177	48	15.954295847065
15	178	48.5	15.930087008821
15	179	49	16.050765266624
15	180	49.5	15.946540788627
15	181	50	16.047154875864
15	182	50.5	16.044851440415
15	183	51	15.954742200878
15	184	51.5	15.988267603103
15	185	52	15.933767139437
15	186	52.5	16.010416099606
15	187	53	16.041816550598
15	188	53.5	15.990570030597
15	189	54	16.027989416488
15	190	54.5	15.979148138783
15	191	55	15.950659864785
15	192	55.5	15.991674751526
15	193	56	15.997690081024
15	194	56.5	15.981501906892
15	195	57	16.04799563116
15	196	57.5	15.963222563442
15	197	58	16.038185222203
15	198	58.5	15.936626598835
15	199	59	15.984057411778
15	200	59.5	16.003633745774
15	201	60	15.963876459068
15	202	60.5	16.045317722033
15	203	61	16.015014840826
15	204	61.5	15.959403668982
15	205	62	16.044345152635
15	206	62.5	15.946472504267
15	207	63	16.002355689335
15	208	63.5	16.018551534675
15	209	64	15.939434887635
15	282	64.5	15.991640690449
15	283	65	15.997804384644
15	284	65.5	16.016177602611
15	285	66	16.00453357809
15	286	66.5	15.995890068007
15	287	67	16.023923876675
15	288	67.5	15.991254406113
15	289	68	15.994018678272
15	363	68.5	15.988070448595
15	437	69	15.93676252109
15	511	69.5	15.967154056163
15	512	70	16.011636202936
15	513	70.5	15.970438039953
15	514	71	15.987461896255
15	515	71.5	15.977461426335
15	517	72	16.03284261765
15	518	72.5	16.021682521042
15	519	73	16.033256374903
15	520	73.5	15.99625723908
16	4	1	2.1601955810489
16	5	1.5	3.1144628968242
16	6	2	4.1105820955232
16	7	2.5	5.2289444127435
16	8	3	6.0858094900696
16	9	3.5	7.0473769874488
16	10	4	8.1433097840416
16	11	4.5	9.173221089911
16	12	5	10.05867896536
16	13	5.5	11.148680243594
16	14	6	12.171584089579
16	15	6.5	13.106705217048
16	16	7	13.99409036707
16	17	7.5	14.543085340356
16	18	8	14.602687780525
16	19	8.5	14.517289030695
16	20	9	14.570008487972
16	21	9.5	14.575677133071
16	22	10	14.560443590894
16	23	10.5	14.61913622578
16	24	11	14.54825024424
16	25	11.5	14.519225431246
16	26	12	14.543037858788
16	27	12.5	14.612220510697
16	28	13	14.538531441971
16	29	13.5	14.588886783152
16	30	14	14.586384882714
16	31	14.5	14.525227403968
16	32	15	14.635057979818
16	33	15.5	14.556876347599
16	34	16	14.55173467303
16	35	16.5	14.521861440282
16	36	17	14.524333486348
16	37	17.5	14.61959528806
16	38	18	14.517940223239
16	39	18.5	14.534069228821
16	40	19	14.557720358247
16	41	19.5	14.618730225999
16	42	20	14.640260186026
16	43	20.5	14.559702563066
16	44	21	14.570991012117
16	45	21.5	14.576682747238
16	46	22	14.547124937753
16	47	22.5	14.542483149316
16	48	23	14.608776330758
16	49	23.5	14.563148345725
16	50	24	14.584590232608
16	51	24.5	14.596463933828
16	52	25	14.632218628198
16	53	25.5	14.640536238936
16	54	26	14.56424671979
16	55	26.5	14.59985831915
16	56	27	12.99679047554
16	57	27.5	11.634470266352
16	58	28	11.410184876751
16	59	28.5	9.1768068300144
16	60	29	8.6692932682091
16	61	29.5	8.6545815453751
16	62	30	8.7020650549073
16	63	30.5	8.6871573199102
16	64	31	8.6874157221059
16	65	31.5	8.6518976251481
16	144	32	8.7110292333926
16	145	32.5	8.774150936534
16	146	33	8.7104188366423
16	147	33.5	8.6722553810503
16	148	34	8.7317063623786
16	149	34.5	8.6881515744424
16	150	35	8.7715638518802
16	151	35.5	8.7794007455933
16	152	36	8.7632931033967
16	153	36.5	8.7074452181233
16	154	37	8.693996891219
16	155	37.5	8.7769655293066
16	156	38	8.6914618702515
16	157	38.5	8.7105710856596
16	158	39	8.6624263996587
16	159	39.5	8.6731065072774
16	160	40	8.6904158540469
16	162	40.5	8.6650666580468
16	163	41	8.6606381080093
16	164	41.5	8.6934913809624
16	165	42	8.6606514358803
16	166	42.5	8.7544216800577
16	167	43	8.7445978709499
16	168	43.5	8.7012716774506
16	169	44	8.7185145582704
16	170	44.5	8.667836338247
16	171	45	8.6909460607383
16	172	45.5	8.7075279357404
16	173	46	8.7485729695743
16	174	46.5	8.7242872684801
16	175	47	8.7322103780022
16	176	47.5	8.7531157424467
16	177	48	8.7799054334385
16	178	48.5	8.7732399426869
16	179	49	8.6577463098129
16	180	49.5	8.7618389691369
16	181	50	8.7209031851383
16	182	50.5	8.6769899024165
16	183	51	8.6641497856428
16	184	51.5	8.6936713287866
16	185	52	8.6623799932099
16	186	52.5	8.7401000922525
16	187	53	8.7784088976987
16	188	53.5	8.7419353317845
16	189	54	8.7384252621073
16	190	54.5	8.6676370343196
16	191	55	8.7160342569442
16	192	55.5	8.715332665907
16	193	56	8.780635785356
16	194	56.5	8.6968886990406
16	195	57	8.6968477597766
16	196	57.5	8.6854054624381
16	197	58	8.779265278145
16	198	58.5	8.7618051253239
16	199	59	8.6807704321763
16	200	59.5	7.8473887787453
16	201	60	7.0173887787453
16	202	60.5	8.2610976064714
16	203	61	8.744770626738
16	204	61.5	8.7614393422499
16	205	62	8.7142987736038
16	206	62.5	8.7401116884619
16	207	63	8.6869030514129
16	208	63.5	8.7490637344195
16	209	64	8.7702039589852
16	282	64.5	8.7444894748836
16	283	65	8.7359588133779
16	284	65.5	8.7609916175695
16	285	66	8.7728298290635
16	286	66.5	8.7583424186244
16	287	67	8.7032469455435
16	288	67.5	8.7681611490066
16	289	68	8.7772734280399
16	363	68.5	8.7244816663003
16	437	69	8.6597574304536
16	511	69.5	8.7010967854995
16	512	70	7.0643598282226
16	513	70.5	6.9443598282226
16	514	71	8.1501582665794
16	515	71.5	8.7750914363077
16	517	72	8.7280203766029
16	518	72.5	8.6893657501208
16	519	73	8.741511089702
16	520	73.5	8.6624551426808
17	5	1.5	0.90630194198784
17	6	2	0.91340702508576
17	7	2.5	0.96825475567952
17	8	3	1.001690817643
17	9	3.5	0.73637216261588
17	10	4	0.8844090156164
17	11	4.5	0.85604035260156
17	12	5	0.94190141592175
17	13	5.5	0.87370130069554
17	14	6	0.89731501227245
17	15	6.5	0.7596429517027
17	16	7	0.97169857121073
17	17	7.5	0.99587312475778
17	18	8	0.86374559696764
17	19	8.5	0.76456936011091
17	20	9	0.79889440412633
17	21	9.5	0.93416607781313
17	22	10	0.87777238251641
17	23	10.5	0.92371814771554
17	24	11	0.93108706858008
17	25	11.5	0.90864346138201
17	26	12	0.79313572201877
17	27	12.5	0.87431033494881
17	28	13	0.97034959137439
17	29	13.5	0.98360280549153
17	30	14	0.89162361418827
17	31	14.5	0.97794342010281
17	32	15	0.84577668593264
17	33	15.5	0.80947559558786
17	34	16	1.0745330942888
17	35	16.5	0.9206899466738
17	36	17	0.79484071819111
17	37	17.5	0.83752169860526
17	38	18	0.95642699377611
17	39	18.5	0.78657678823919
17	40	19	0.93948051857763
17	41	19.5	0.93209200378508
17	42	20	0.87385098310188
17	43	20.5	0.89886402189732
17	44	21	0.95356077823789
17	45	21.5	1.0006243242603
17	46	22	0.88197967979127
17	47	22.5	0.91466382066721
17	48	23	0.94967480415479
17	49	23.5	0.93209277768621
17	50	24	1.017909029983
17	51	24.5	0.86894239252434
17	52	25	0.045670057566518
17	53	25.5	-0.032370122848079
17	54	26	0.00031983995810236
17	55	26.5	0.10785632573068
17	56	27	-0.093922081505873
17	57	27.5	0.087237272188062
17	58	28	-0.031144870296117
17	59	28.5	-0.065310813691468
17	60	29	-0.010498828031125
17	61	29.5	0.089619583887981
17	62	30	-0.057115693129596
17	63	30.5	0.073525148844347
17	64	31	-0.032208579517906
17	65	31.5	0.00998458695598
17	144	32	-0.035178750464688
17	145	32.5	0.032724588727575
17	146	33	0.034478072002528
17	147	33.5	-0.10415120808408
17	148	34	0.070024223774674
17	149	34.5	0.028775167912244
17	150	35	-0.042427636412903
17	151	35.5	0.031784353768451
17	152	36	-0.083172300886361
17	153	36.5	-0.013512681350115
17	154	37	0.01004345937632
17	155	37.5	-0.0014938846137369
17	156	38	0.03805619135499
17	157	38.5	0.013729243716227
17	158	39	-0.016923201614993
17	159	39.5	-0.01527198068797
17	160	40	0.027741732001303
17	162	40.5	-0.05755414450541
17	163	41	0.070228263549502
17	164	41.5	0.040315422685815
17	165	42	-0.026501040263099
17	166	42.5	-0.0074193552229573
17	167	43	-0.071510526426131
17	168	43.5	0.1008080884628
17	169	44	0.00057120641693587
17	170	44.5	-0.10130424552597
17	171	45	0.061024606917051
17	172	45.5	-0.053906034976244
17	173	46	0.017753971852365
17	174	46.5	0.016496377000585
17	175	47	0.057018722891804
17	176	47.5	0.0016993884555987
17	177	48	-0.095641259523106
17	178	48.5	0.052022077376023
17	179	49	-0.031968642957509
17	180	49.5	-0.01582451029681
17	181	50	0.074014492649589
17	182	50.5	-1.2524829215399
17	183	51	-3.9269078865272
17	184	51.5	-4
17	185	52	-4
17	186	52.5	-3.9983241379949
17	187	53	-4
17	188	53.5	-4
17	189	54	-3.9921174668951
17	190	54.5	-2.9549593880111
17	191	55	1.2
17	192	55.5	1.0215777593572
17	193	56	1.0088836780563
17	194	56.5	0.90274362551048
17	195	57	0.99494055557995
17	196	57.5	0.9381258841697
17	197	58	0.92694339735433
17	198	58.5	0.78074623195454
17	199	59	0.90732718035578
17	200	59.5	0.90303010798059
17	201	60	1.0562915761024
17	202	60.5	0.75137827154249
17	203	61	1.0388067900203
17	204	61.5	0.86588126133195
17	205	62	0.97670254024677
17	206	62.5	0.81147551164962
17	207	63	0.74348319341428
17	208	63.5	0.80345701128244
17	209	64	0.88354997791349
17	282	64.5	0.89949513201601
17	283	65	0.89331488105468
17	284	65.5	0.92060142092408
17	285	66	0.74028544856414
17	286	66.5	0.043641303470359
17	287	67	-0.067597427330909
17	288	67.5	0.067226828355345
17	289	68	0.0086097696237246
17	363	68.5	0.018869787314905
17	437	69	-0.026151802176607
17	511	69.5	-0.061621971130371
17	512	70	0.013273919904606
17	513	70.5	-0.020581107269976
17	514	71	0.049931956361981
17	515	71.5	0.00047985498792968
17	517	72	0.023142412444578
17	518	72.5	-0.036671611340715
17	519	73	0.0069056729413575
17	520	73.5	-0.010973366098476
18	5	1.5	1.4879334530051
18	6	2	1.6132692118776
18	7	2.5	1.774955217919
18	8	3	1.9399645462544
18	9	3.5	1.8412670129931
18	10	4	2.0734096271212
18	11	4.5	2.1590699722102
18	12	5	2.3759099330688
18	13	5.5	2.4166726257484
18	14	6	2.5672189760482
18	15	6.5	2.4775098225192
18	16	7	2.917777159353
18	17	7.5	3.1040721566467
18	18	8	3.0036717065378
18	19	8.5	2.9251724004981
18	20	9	3.0912608129898
18	21	9.5	3.4895749885006
18	22	10	3.4973498690651
18	23	10.5	3.7321536620711
18	24	11	3.8877343570021
18	25	11.5	3.9686114283298
18	26	12	3.7884802178906
18	27	12.5	4.125769287589
18	28	13	4.5381993626689
18	29	13.5	4.7349194209254
18	30	14	4.6022211168677
18	31	14.5	5.0249056725594
18	32	15	4.7360653077296
18	33	15.5	4.7375822630564
18	34	16	5.8198207003021
18	35	16.5	5.436646094345
18	36	17	5.1054553725593
18	37	17.5	5.3952794666825
18	38	18	6.0123039844926
18	39	18.5	5.4726451858172
18	40	19	6.2492831936675
18	41	19.5	6.3846666731497
18	42	20	6.2900284828632
18	43	20.5	6.5584059619124
18	44	21	6.979394747501
18	45	21.5	7.3889868488056
18	46	22	6.9969201746262
18	47	22.5	7.3268128966839
18	48	23	7.6848236919857
18	49	23.5	7.7809399716037
18	50	24	8.4341171123639
18	51	24.5	7.8241302729532
18	52	25	3.4322488973582
18	53	25.5	3.0122184874303
18	54	26	3.186867571593
18	55	26.5	3.7726616397231
18	56	27	2.6845802681854
18	57	27.5	3.6615635820428
18	58	28	3.024992586619
18	59	28.5	2.8366842640672
18	60	29	3.1285514041701
18	61	29.5	3.6725279413924
18	62	30	2.8823434043574
18	63	30.5	3.5880561904034
18	64	31	3.0191254708464
18	65	31.5	3.2457905438584
18	144	32	3.0010149873039
18	145	32.5	3.3672386895244
18	146	33	3.3799531015792
18	147	33.5	2.6292813398718
18	148	34	3.5668582032497
18	149	34.5	3.348900384219
18	150	35	2.9639505719801
18	151	35.5	3.3639873125314
18	152	36	2.7417694941054
18	153	36.5	3.1127394693344
18	154	37	3.2395006499856
18	155	37.5	3.1777235201955
18	156	38	3.3927034619221
18	157	38.5	3.2639172978825
18	158	39	3.0984388906559
18	159	39.5	3.1058859110401
18	160	40	3.3384393712484
18	162	40.5	2.8773534054774
18	163	41	3.5669414912943
18	164	41.5	3.4108410964988
18	165	42	3.0507042290268
18	166	42.5	3.1521375792444
18	167	43	2.803236763137
18	168	43.5	3.7342669400939
18	169	44	3.1976544508641
18	170	44.5	2.6440899706511
18	171	45	3.5173044007663
18	172	45.5	2.8978934453624
18	173	46	3.282426432984
18	174	46.5	3.2772602153036
18	175	47	3.4995868672501
18	176	47.5	3.203581931079
18	177	48	2.6746993826238
18	178	48.5	3.4686986796227
18	179	49	3.0166345024951
18	180	49.5	3.1014917908717
18	181	50	3.588985168624
18	182	50.5	0.973
18	183	51	0.973
18	184	51.5	0.973
18	185	52	0.973
18	186	52.5	0.973
18	187	53	0.973
18	188	53.5	0.973
18	189	54	0.973
18	190	54.5	0.973
18	191	55	3.4141109847635
18	192	55.5	3.2814462077323
18	193	56	3.4141177357999
18	194	56.5	3.3435861168832
18	195	57	3.679177319692
18	196	57.5	3.6990161743689
18	197	58	3.8115514250171
18	198	58.5	3.574623113366
18	199	59	4.0149528377421
18	200	59.5	4.1384960828087
18	201	60	4.7207339469757
18	202	60.5	3.9785647360438
18	203	61	4.9749082827248
18	204	61.5	4.5900284212514
18	205	62	5.0932048256648
18	206	62.5	4.6837289706416
18	207	63	4.5638263400446
18	208	63.5	4.8868280087037
18	209	64	5.3077140996744
18	282	64.5	5.512692705609
18	283	65	5.6375643270517
18	284	65.5	5.8985598466001
18	285	66	5.3036540326375
18	286	66.5	2.514788980006
18	287	67	2.0647401202388
18	288	67.5	2.6094065056249
18	289	68	2.3747387509071
18	363	68.5	2.4171439437234
18	437	69	2.2347809077138
18	511	69.5	2.0890507257155
18	512	70	2.3898942255788
18	513	70.5	2.2530012219597
18	514	71	2.5387956980115
18	515	71.5	2.3404924317023
18	517	72	2.4328959802351
18	518	72.5	2.1907045674063
18	519	73	2.3658448702598
18	520	73.5	2.2934812052513
19	5	1.5	1.9930402421779
19	6	2	1.9030948903272
19	7	2.5	1.9100973012391
19	8	3	1.9492083071079
19	9	3.5	1.9791114867572
19	10	4	1.8300033096923
19	11	4.5	1.8169069424755
19	12	5	-0.053776765498334
19	13	5.5	0.034887559618802
19	14	6	-0.037924344786443
19	15	6.5	-0.050573050463573
19	16	7	-0.083039860227146
19	17	7.5	0.0050489223888164
19	18	8	0.13380196348764
19	19	8.5	0.030713505875319
19	20	9	-0.0046724653104313
19	21	9.5	0.004297786415556
19	22	10	-0.0081039764639002
19	23	10.5	-0.065722979181448
19	24	11	-0.0098529954953115
19	25	11.5	1.3213580958126
19	26	12	1.9913192673959
19	27	12.5	1.8415240229014
19	28	13	1.8280035374267
19	29	13.5	1.9531398716243
19	30	14	1.7038612716133
19	31	14.5	-0.25180587678362
19	32	15	-4.4577341403393
19	33	15.5	-2.1688007614607
19	34	16	-3.604630530593
19	35	16.5	-0.098657931257041
19	36	17	-0.13471725054551
19	37	17.5	0.13723278804217
19	38	18	0.10267907205504
19	39	18.5	-0.22413767249789
19	40	19	0.012734085544945
19	41	19.5	0.029065674166194
19	42	20	0.16471769696567
19	43	20.5	-0.02431064663455
19	44	21	-0.084490675632843
19	45	21.5	0.038211546423845
19	46	22	-0.14556398450397
19	47	22.5	0.17454274808988
19	48	23	-0.014719062577932
19	49	23.5	-0.1408049145015
19	50	24	0.098071262547748
19	51	24.5	-0.040684018572794
19	52	25	-0.043725382015108
19	53	25.5	0.13245049172081
19	54	26	-0.12678983606864
19	55	26.5	-3.5399214311054
19	56	27	1.18
19	57	27.5	2.3312722031167
19	58	28	2.2006176775228
19	59	28.5	2.0071128195431
19	60	29	1.8395591145102
19	61	29.5	1.8067059491901
19	62	30	2.1991573502822
19	63	30.5	1.8277500114438
19	64	31	-0.12934605978895
19	65	31.5	0.093890078575349
19	144	32	-0.21334078240208
19	145	32.5	0.21031422212254
19	146	33	0.015202338458039
19	147	33.5	-0.14310495848302
19	148	34	0.023895786507055
19	149	34.5	0.020591176599265
19	150	35	0.016138664851898
19	151	35.5	-0.10109313274268
19	152	36	0.15583190144971
19	153	36.5	-0.16220935047604
19	154	37	0.19523565362673
19	155	37.5	-0.22620672291145
19	156	38	0.12572224971839
19	157	38.5	-0.028187055317687
19	158	39	0.082540686754509
19	159	39.5	0.012481366223657
19	160	40	-0.10428213747684
19	162	40.5	-0.07409037233796
19	163	41	0.064859194187449
19	164	41.5	-0.08716078790836
19	165	42	0.13355584494769
19	166	42.5	-0.078948473916387
19	167	43	-2.9296146067086
19	168	43.5	-4.4770098880176
19	169	44	-4.5
19	170	44.5	-4.5
19	171	45	2.6
19	172	45.5	1.9042150564631
19	173	46	1.9020491275564
19	174	46.5	1.769035289092
19	175	47	1.7117784768203
19	176	47.5	1.9075582927978
19	177	48	1.7261859840201
19	178	48.5	2.0288419785583
19	179	49	0.93881581762386
19	180	49.5	-0.020809994023292
19	181	50	0.03058171465527
19	182	50.5	0.083883941187526
19	183	51	-0.00070330172311728
19	184	51.5	-0.042380607463418
19	185	52	-0.029885073159821
19	186	52.5	0.085057332785798
19	187	53	-0.21442216411233
19	188	53.5	0.16863212586846
19	189	54	-0.10192375092767
19	190	54.5	-0.085281488755719
19	191	55	0.24022196933161
19	192	55.5	-0.03077201812528
19	193	56	0.023525529704056
19	194	56.5	-0.15413755456917
19	195	57	0.14899533426855
19	196	57.5	-0.22823461080436
19	197	58	0.21184690812603
19	198	58.5	0.034986321325412
19	199	59	-0.23491863249335
19	200	59.5	-0.011538142058996
19	201	60	0.17614517752081
19	202	60.5	-0.11964376059361
19	203	61	-0.057818406559527
19	204	61.5	0.13555315945298
19	205	62	0.042269242289475
19	206	62.5	0.049940366488883
19	207	63	-0.11259149225894
19	208	63.5	0.069670090060679
19	209	64	-0.18044417713769
19	282	64.5	0.088237807941624
19	283	65	0.045706593771463
19	284	65.5	-0.023766140863298
19	285	66	-0.10637015671469
19	286	66.5	0.14677502886858
19	287	67	-0.1436365229357
19	288	67.5	0.13852348466404
19	289	68	0.039599813343958
19	363	68.5	-0.064338934947738
19	437	69	0.026675652246922
19	511	69.5	0.044146048631521
19	512	70	-0.085790031137876
19	513	70.5	-0.0063117392314602
19	514	71	-0.057121846121738
19	515	71.5	0.12089091320988
19	517	72	-0.1434149757633
19	518	72.5	0.21475101988297
19	519	73	-0.015415933565237
19	520	73.5	-0.056463887351562
20	5	1.5	2.7024978186224
20	6	2	3.1228378106583
20	7	2.5	3.6204637772488
20	8	3	4.1795362644611
20	9	3.5	4.7528987655501
20	10	4	4.9670552711745
20	11	4.5	5.4012137681428
20	12	5	1.4763863221932
20	13	5.5	1.6631169338868
20	14	6	1.5094392617643
20	15	6.5	1.4815608496612
20	16	7	1.4118609613406
20	17	7.5	1.5947617075035
20	18	8	1.8686843153561
20	19	8.5	1.6542968023021
20	20	9	1.5800130897105
20	21	9.5	1.5989493362405
20	22	10	1.5726989615504
20	23	10.5	1.4503109526041
20	24	11	1.5665168497934
20	25	11.5	4.5986223214663
20	26	12	6.6543354336105
20	27	12.5	6.7649307342819
20	28	13	7.2096996505112
20	29	13.5	8.1258220546014
20	30	14	7.7720176419972
20	31	14.5	1.1827992916936
20	32	15	0.973
20	33	15.5	0.973
20	34	16	0.973
20	35	16.5	1.3826954261668
20	36	17	1.304817640411
20	37	17.5	1.8762032725321
20	38	18	1.8087470297667
20	39	18.5	0.973
20	40	19	1.6118519283161
20	41	19.5	1.6469044146001
20	42	20	1.9383301795746
20	43	20.5	1.540200424566
20	44	21	1.4118099234401
20	45	21.5	1.6696313039536
20	46	22	1.2824106146412
20	47	22.5	1.9566670594839
20	48	23	1.559283384157
20	49	23.5	1.2926225771186
20	50	24	1.7936333750039
20	51	24.5	1.5024057383261
20	52	25	1.4947869259891
20	53	25.5	1.8679195817618
20	54	26	1.3221211084191
20	55	26.5	0.973
20	56	27	3.6274655817342
20	57	27.5	6.4275397243869
20	58	28	6.8184352928874
20	59	28.5	6.9280943490295
20	60	29	6.9791268426376
20	61	29.5	7.3604933744918
20	62	30	9.235236049927
20	63	30.5	8.5108373453007
20	64	31	1.6387323372405
20	65	31.5	2.4246313835492
20	144	32	1.3420402189006
20	145	32.5	2.8324141351834
20	146	33	2.1495345190754
20	147	33.5	1.5893367870315
20	148	34	2.1733140479828
20	149	34.5	2.162922425443
20	150	35	2.1482555025508
20	151	35.5	1.7342523722028
20	152	36	2.6405897277459
20	153	36.5	1.5211123520297
20	154	37	2.7811519725819
20	155	37.5	1.2973991722267
20	156	38	2.5305045661397
20	157	38.5	1.9912477542303
20	158	39	2.3830402828993
20	159	39.5	2.1384367678193
20	160	40	1.7252077799887
20	162	40.5	1.8273066437855
20	163	41	2.314963711928
20	164	41.5	1.780858403242
20	165	42	2.5578602432969
20	166	42.5	1.8118017444336
20	167	43	0.973
20	168	43.5	0.973
20	169	44	0.973
20	170	44.5	0.973
20	171	45	6.2499841014219
20	172	45.5	5.4826258024982
20	173	46	5.9813031337595
20	174	46.5	6.1218573400353
20	175	47	6.4010247361317
20	176	47.5	7.4500735643962
20	177	48	7.3573762340637
20	178	48.5	8.9032937558199
20	179	49	5.3723819698842
20	180	49.5	2.0175096719669
20	181	50	2.1987319426032
20	182	50.5	2.3904061552008
20	183	51	2.0937882691089
20	184	51.5	1.9456156325652
20	185	52	1.9878764566695
20	186	52.5	2.3952904708788
20	187	53	1.3389377007902
20	188	53.5	2.6850657868486
20	189	54	1.7333611107744
20	190	54.5	1.7877890259482
20	191	55	2.9401514552214
20	192	55.5	1.9878289114713
20	193	56	2.1794565078527
20	194	56.5	1.5509191215168
20	195	57	2.6191947681999
20	196	57.5	1.2903609104698
20	197	58	2.8383236220378
20	198	58.5	2.2204335570631
20	199	59	1.2673979973752
20	200	59.5	2.0443841596734
20	201	60	2.7105506948298
20	202	60.5	1.6704050518451
20	203	61	1.8832874433442
20	204	61.5	2.5655267404663
20	205	62	2.2418975553765
20	206	62.5	2.2717208981589
20	207	63	1.6972637314037
20	208	63.5	2.3382574109053
20	209	64	1.4567576614624
20	282	64.5	2.3973826858581
20	283	65	2.2516086434707
20	284	65.5	2.0075276595656
20	285	66	1.7146850385602
20	286	66.5	2.6061346587589
20	287	67	1.58509473035
20	288	67.5	2.5769120074714
20	289	68	2.233229339858
20	363	68.5	1.86627752514
20	437	69	2.1858353786294
20	511	69.5	2.2495320223548
20	512	70	1.790674430592
20	513	70.5	2.0679371609537
20	514	71	1.8878682731073
20	515	71.5	2.5164473797535
20	517	72	1.586325670496
20	518	72.5	2.8505785698394
20	519	73	2.0423067479373
20	520	73.5	1.8957470377821
21	5	1.5	2.0247548197413
21	6	2	1.8645833396353
21	7	2.5	1.8055928882817
21	8	3	2.0152289357083
21	9	3.5	1.7362169775367
21	10	4	1.9772961226059
21	11	4.5	2.1043041368993
21	12	5	1.9376376652252
21	13	5.5	2.0410414907103
21	14	6	1.7316657243017
21	15	6.5	1.7535109653324
21	16	7	2.1064462006511
21	17	7.5	1.9656172225578
21	18	8	1.9374001099821
21	19	8.5	0.62614844637606
21	20	9	-0.023627150221728
21	21	9.5	0.18793160022236
21	22	10	-0.028722167541275
21	23	10.5	0.068589725960045
21	24	11	-0.1115026191622
21	25	11.5	-0.067786911884323
21	26	12	0.099224680000916
21	27	12.5	0.0044288464216535
21	28	13	-0.14205086414702
21	29	13.5	0.10821798915043
21	30	14	0.079349767691454
21	31	14.5	-0.075464900801887
21	32	15	0.11253216247075
21	33	15.5	-0.21784216864966
21	34	16	0.18814738872926
21	35	16.5	-0.12427133467048
21	36	17	0.11274709566496
21	37	17.5	-0.13037588955369
21	38	18	0.087639433937149
21	39	18.5	-0.15683101762552
21	40	19	0.20904142725747
21	41	19.5	-0.17143012872897
21	42	20	-0.041888968963178
21	43	20.5	0.16411815249827
21	44	21	-0.17084698309191
21	45	21.5	0.094302774905227
21	46	22	-0.050525205438024
21	47	22.5	0.18577058859169
21	48	23	-0.22320228931494
21	49	23.5	0.12290580227506
21	50	24	-0.027157431375237
21	51	24.5	0.10799457038753
21	52	25	-0.1820655551739
21	53	25.5	0.15779240796808
21	54	26	-0.061567105478609
21	55	26.5	0.0093804445303967
21	56	27	-0.10055269898381
21	57	27.5	-0.011625698073765
21	58	28	0.011218612701629
21	59	28.5	0.14980708769057
21	60	29	0.057279269178402
21	61	29.5	-0.18511616584845
21	62	30	0.19606974324677
21	63	30.5	-0.20159669661894
21	64	31	0.054580664862879
21	65	31.5	0.12670927534812
21	144	32	-0.20316809761338
21	145	32.5	0.20480400815606
21	146	33	-0.10092480957974
21	147	33.5	0.034184922459534
21	148	34	0.074869528110142
21	149	34.5	-0.15553805538453
21	150	35	0.059022647165694
21	151	35.5	-0.071553980140017
21	152	36	0.023994209938682
21	153	36.5	-0.077552517596629
21	154	37	0.021173556214197
21	155	37.5	0.014884578809141
21	156	38	0.14754596040584
21	157	38.5	-0.035961277899332
21	158	39	-0.055276975771413
21	159	39.5	0.13499816074036
21	160	40	-0.01764613980427
21	162	40.5	-0.042620429657404
21	163	41	-0.062837615595196
21	164	41.5	0.027608597707001
21	165	42	-0.064128786637447
21	166	42.5	0.096932213185358
21	167	43	-0.130356015414
21	168	43.5	0.064658899740316
21	169	44	-0.067577239749951
21	170	44.5	-0.021598563320005
21	171	45	0.11130836771801
21	172	45.5	-0.067314715962855
21	173	46	0.15205590656027
21	174	46.5	-0.066671494189649
21	175	47	-0.15444235177245
21	176	47.5	0.20460433813743
21	177	48	-0.14839413299225
21	178	48.5	-0.048417676487006
21	179	49	0.24135651560501
21	180	49.5	-0.2084489559941
21	181	50	0.20122817447409
21	182	50.5	-0.0046068708971134
21	183	51	-0.18021847907454
21	184	51.5	0.067050804449245
21	185	52	-0.10900092733092
21	186	52.5	0.15329792033881
21	187	53	0.062800901983863
21	188	53.5	-0.10249304000288
21	189	54	0.074838771782819
21	190	54.5	-0.097682555411012
21	191	55	-0.056976547995582
21	192	55.5	0.082029773481189
21	193	56	0.012030658996665
21	194	56.5	-0.032376348264517
21	195	57	0.13298744853586
21	196	57.5	-0.16954613543581
21	197	58	0.14992531752214
21	198	58.5	-0.20311724673491
21	199	59	0.094861625884661
21	200	59.5	0.039152667992749
21	201	60	-0.079514573412016
21	202	60.5	0.16288252593018
21	203	61	-0.060605762414639
21	204	61.5	-0.11122234368696
21	205	62	0.16988296730444
21	206	62.5	-0.19574529673438
21	207	63	0.11176637013443
21	208	63.5	0.032391690681685
21	209	64	-0.15823329408187
21	282	64.5	0.10441160562914
21	283	65	0.012327388389966
21	284	65.5	0.036746435933743
21	285	66	-0.023288049041291
21	286	66.5	-0.017287020166403
21	287	67	0.056067617335355
21	288	67.5	-0.065338941123336
21	289	68	0.0055285443179329
21	363	68.5	-0.011896459353157
21	437	69	-0.10261585501023
21	511	69.5	0.060783070144243
21	512	70	0.08896429354791
21	513	70.5	-0.082396325967277
21	514	71	0.034047712604515
21	515	71.5	-0.02000093983952
21	517	72	0.11076238262932
21	518	72.5	-0.022320193215272
21	519	73	0.023147707721222
21	520	73.5	-0.07399827164598
22	5	1.5	2.7984568684538
22	6	2	3.1444097541456
22	7	2.5	3.5280106963949
22	8	3	4.3259352163484
22	9	3.5	4.3384594692947
22	10	4	5.2703279254748
22	11	4.5	6.1151855528723
22	12	5	6.2806852194509
22	13	5.5	7.1081769084565
22	14	6	6.7304899914031
22	15	6.5	7.2412740892781
22	16	7	8.9513099409504
22	17	7.5	9.0547083895803
22	18	8	9.5156421158074
22	19	8.5	4.6597810862715
22	20	9	2.1615420551011
22	21	9.5	2.9893392055865
22	22	10	2.1508955436355
22	23	10.5	2.5310910794497
22	24	11	1.8294600174731
22	25	11.5	1.9944571009003
22	26	12	2.6438280591366
22	27	12.5	2.2784031518175
22	28	13	1.7072368803552
22	29	13.5	2.6763856360336
22	30	14	2.5706154503682
22	31	14.5	1.9686439407229
22	32	15	2.7015403788886
22	33	15.5	1.4163403560233
22	34	16	2.9915835300722
22	35	16.5	1.7786689819263
22	36	17	2.6993480398884
22	37	17.5	1.7543976624049
22	38	18	2.599350566667
22	39	18.5	1.6498124028048
22	40	19	3.0721560686166
22	41	19.5	1.5952186805004
[...]
125	182	50.5	0.12472192819503
125	183	51	-2.7138480095269
125	184	51.5	2.6
125	185	52	1.3052339954099
125	186	52.5	1.6701354575017
125	187	53	1.8549887212002
125	188	53.5	-0.025161725434639
125	189	54	-0.071069508458887
125	190	54.5	-0.1107288146643
125	191	55	0.22729945657787
125	192	55.5	-0.13218976513961
125	193	56	-0.09058583526075
125	194	56.5	-0.08793841931525
125	195	57	0.066111935238926
125	196	57.5	-0.19100402427247
125	197	58	0.32990651490914
125	198	58.5	-0.34969408909327
125	199	59	0.30040311037994
125	200	59.5	-0.29172781329506
125	201	60	0.36642252309691
125	202	60.5	-0.029910205517577
125	203	61	-0.17431553710824
125	204	61.5	-0.1238873844829
125	205	62	-0.084889473613444
125	206	62.5	0.16414211409969
125	207	63	-0.068729670396408
125	208	63.5	0.12970558273877
125	209	64	0.0097881522523764
125	282	64.5	-0.075163396612641
125	283	65	-0.072509515488768
125	284	65.5	-0.0023459184290289
125	285	66	0.12230804366861
125	286	66.5	-0.036350283924364
125	287	67	0.042002619748271
125	288	67.5	-0.068268778526289
125	289	68	0.14757555304231
125	363	68.5	0.065520870086591
125	437	69	-0.24440756136846
125	511	69.5	0.063528582528164
125	512	70	0.1155220109422
125	513	70.5	-0.079896804489575
125	514	71	-0.059259906251253
125	515	71.5	-2.1430670098337
125	517	72	-1.0633972748914
125	518	72.5	0.75871822809537
125	519	73	0.65775730088653
125	520	73.5	-1.9367371843536
126	36	17	2.3548820857863
126	37	17.5	3.1716941421735
126	38	18	3.6886383437688
126	39	18.5	3.884963985717
126	40	19	4.3777766709134
126	41	19.5	4.23791292461
126	42	20	0.973
126	43	20.5	0.973
126	44	21	0.973
126	45	21.5	0.973
126	46	22	0.973
126	47	22.5	1.5544966487427
126	48	23	0.973
126	49	23.5	0.973
126	50	24	1.3624027381821
126	51	24.5	1.5915147622106
126	52	25	1.301205446332
126	53	25.5	1.3269988387154
126	54	26	2.765526809381
126	55	26.5	3.3584323475039
126	56	27	4.0914399652828
126	57	27.5	1.5694893153715
126	58	28	1.5576004795756
126	59	28.5	1.7022120149246
126	60	29	1.445348077382
126	61	29.5	4.9791980196534
126	62	30	5.7040045519361
126	63	30.5	0.973
126	64	31	0.973
126	65	31.5	0.973
126	144	32	0.973
126	145	32.5	0.973
126	146	33	0.973
126	147	33.5	0.973
126	148	34	0.973
126	149	34.5	0.973
126	150	35	0.973
126	151	35.5	0.973
126	152	36	0.973
126	153	36.5	1.4166627497972
126	154	37	1.3428857997242
126	155	37.5	0.973
126	156	38	1.334511786936
126	157	38.5	1.2737435685532
126	158	39	1.4293184122122
126	159	39.5	1.403112349449
126	160	40	1.3320306340664
126	162	40.5	1.4716598641494
126	163	41	1.2912078856758
126	164	41.5	1.4074179708294
126	165	42	1.4371238560261
126	166	42.5	1.4640389443243
126	167	43	1.237344489598
126	168	43.5	1.4059001302072
126	169	44	1.4676902727367
126	170	44.5	1.5457611883155
126	171	45	0.973
126	172	45.5	1.6523851315231
126	173	46	1.4856975188283
126	174	46.5	1.2238735039805
126	175	47	1.3397474189534
126	176	47.5	1.6813058118487
126	177	48	1.6973289534472
126	178	48.5	2.8460886171027
126	179	49	2.5462994769447
126	180	49.5	0.973
126	181	50	5.1403770365539
126	182	50.5	1.762770110127
126	183	51	0.973
126	184	51.5	6.3651916464461
126	185	52	4.2034329656917
126	186	52.5	5.334416211554
126	187	53	6.2282667412265
126	188	53.5	1.6330477592079
126	189	54	1.5188948582665
126	190	54.5	1.4196960920081
126	191	55	2.2521875312098
126	192	55.5	1.3699021433158
126	193	56	1.4685379672468
126	194	56.5	1.4725308749909
126	195	57	1.8466170192796
126	196	57.5	1.2224306181574
126	197	58	2.4949169408551
126	198	58.5	0.973
126	199	59	2.4194582159682
126	200	59.5	0.973
126	201	60	2.5858654779471
126	202	60.5	1.619214751188
126	203	61	1.2649269278969
126	204	61.5	1.3837003933242
126	205	62	1.4748342352907
126	206	62.5	2.0786292033971
126	207	63	1.5162152889117
126	208	63.5	1.9990303973279
126	209	64	1.7099655702316
126	282	64.5	1.5026410390584
126	283	65	1.5069128395228
126	284	65.5	1.675015130755
126	285	66	1.9802293801151
126	286	66.5	1.596392303373
126	287	67	1.7868104044043
126	288	67.5	1.5187782384206
126	289	68	2.0459076569672
126	363	68.5	1.8502042768597
126	437	69	0.973
126	511	69.5	1.837091360143
126	512	70	1.9682885885539
126	513	70.5	1.4927459656882
126	514	71	1.540699933973
126	515	71.5	0.973
126	517	72	0.973
126	518	72.5	3.1953557269112
126	519	73	3.0575690026208
126	520	73.5	0.973
127	40	19	0
128	40	19	1287.36321585
128	41	19.5	1287.3973129066
128	42	20	1287.4511138217
128	43	20.5	1287.5222543478
128	44	21	1287.6143088412
128	45	21.5	1287.7257522403
128	46	22	1287.8556762772
128	47	22.5	1288.0053717273
128	48	23	1288.1683776429
128	49	23.5	1288.3257390398
128	50	24	1288.4770477553
128	51	24.5	1288.624383638
128	52	25	1288.7678350392
128	53	25.5	1288.9082990704
128	54	26	1289.0473915294
128	55	26.5	1289.1910868547
128	56	27	1289.3419494666
128	57	27.5	1289.4997446948
128	58	28	1289.658405524
128	59	28.5	1289.8172138106
128	60	29	1289.977278357
128	61	29.5	1290.1420117291
128	62	30	1290.3197949451
128	63	30.5	1290.5073633424
128	64	31	1291.5497199157
128	65	31.5	1295.7613106546
128	144	32	1299.752265499
128	145	32.5	1303.2289065789
128	146	33	1305.4173334397
128	147	33.5	1307.5651558831
128	148	34	1308.3498108843
128	149	34.5	1307.6627501164
128	150	35	1306.9824109236
128	151	35.5	1305.191557868
128	152	36	1302.7013913749
128	153	36.5	1300.247668194
128	154	37	1297.8198588864
128	155	37.5	1295.4927444757
128	156	38	1293.4480060061
128	157	38.5	1292.298000835
128	158	39	1292.4106498562
128	159	39.5	1292.5225924873
128	160	40	1292.6340515797
128	162	40.5	1292.7452820124
128	163	41	1292.8558032967
128	164	41.5	1292.9656443273
128	165	42	1293.0750021111
128	166	42.5	1293.1840746066
128	167	43	1293.2932730807
128	168	43.5	1293.4013836373
128	169	44	1293.5096522012
128	170	44.5	1293.6182277575
128	171	45	1293.726869113
128	172	45.5	1293.8341284719
128	173	46	1293.9419742379
128	174	46.5	1294.0494755688
128	175	47	1294.1573850801
128	176	47.5	1294.2651596654
128	177	48	1294.3727833639
128	178	48.5	1294.4838094336
128	179	49	1294.6000414771
128	180	49.5	1294.7156724238
128	181	50	1294.8389842595
128	182	50.5	1294.9715193525
128	183	51	1295.1013204873
128	184	51.5	1295.2248576564
128	185	52	1295.3605225908
128	186	52.5	1295.508099466
128	187	53	1295.6348606717
128	188	53.5	1295.759794547
128	189	54	1295.8942456126
128	190	54.5	1296.04103835
128	191	55	1296.1939213517
128	192	55.5	1296.3502955028
128	193	56	1296.5054956409
128	194	56.5	1296.6601626222
128	195	57	1296.7862220459
128	196	57.5	1296.8943760667
128	197	58	1296.9710600353
128	198	58.5	1297.0381420621
128	199	59	1297.1049059395
128	200	59.5	1297.1714328303
128	201	60	1297.2379036018
128	202	60.5	1297.3042459066
128	203	61	1297.3206217514
128	204	61.5	1297.0723106636
128	205	62	1296.797846653
128	206	62.5	1296.4733743971
128	207	63	1296.1482561359
128	208	63.5	1295.8260883277
128	209	64	1295.5189666707
128	282	64.5	1295.2118702321
128	283	65	1294.9047140186
128	284	65.5	1294.687519746
128	285	66	1294.4995136168
128	286	66.5	1294.3906829921
128	287	67	1294.4200745227
128	288	67.5	1294.4494588643
128	289	68	1294.4787464261
128	363	68.5	1294.5081926014
128	437	69	1294.5377709059
128	511	69.5	1294.5821061058
128	512	70	1294.6716667961
128	513	70.5	1294.7611129588
128	514	71	1294.8506243115
128	515	71.5	1294.9371504008
128	517	72	1295.0176382036
128	518	72.5	1295.0970065396
128	519	73	1295.1783073398
128	520	73.5	1295.2596899237
129	40	19	1828.2263283413
129	41	19.5	1827.4100624938
129	42	20	1826.1220964929
129	43	20.5	1824.4190292023
129	44	21	1822.215292383
129	45	21.5	1819.5473952154
129	46	22	1816.4370811675
129	47	22.5	1812.853449747
129	48	23	1808.9511726825
129	49	23.5	1805.1840224685
129	50	24	1801.5617703097
129	51	24.5	1798.0346257044
129	52	25	1794.6004735725
129	53	25.5	1791.2378375269
129	54	26	1787.9080362115
129	55	26.5	1784.4680446638
129	56	27	1780.8564719912
129	57	27.5	1777.0789360814
129	58	28	1773.2806781335
129	59	28.5	1769.4788901303
129	60	29	1765.6470279191
129	61	29.5	1761.7033964442
129	62	30	1757.447358476
129	63	30.5	1752.9570683399
129	64	31	1748.9754203232
129	65	31.5	1748.7209764961
129	144	32	1749.1632989468
129	145	32.5	1748.7461698456
129	146	33	1745.6684658481
129	147	33.5	1742.6478660572
129	148	34	1739.4240005063
129	149	34.5	1735.9781804308
129	150	35	1732.5660711108
129	151	35.5	1729.8725151159
129	152	36	1727.6282909922
129	153	36.5	1725.4169108421
129	154	37	1723.2288851701
129	155	37.5	1720.997326334
129	156	38	1718.5755979512
129	157	38.5	1715.6981774261
129	158	39	1712.5749913808
129	159	39.5	1709.471389954
129	160	40	1706.381194598
129	162	40.5	1703.2973388229
129	163	41	1700.2331441315
129	164	41.5	1697.1878094254
129	165	42	1694.1558727017
129	166	42.5	1691.1318455786
129	167	43	1688.1043257061
129	168	43.5	1685.1069682678
129	169	44	1682.1052300902
129	170	44.5	1679.0949805686
129	171	45	1676.0829067687
129	172	45.5	1673.1091487277
129	173	46	1670.1191325905
129	174	46.5	1667.1386658931
129	175	47	1664.1468824223
129	176	47.5	1661.1588397678
129	177	48	1658.1749804346
129	178	48.5	1655.0967906043
129	179	49	1651.8742655227
129	180	49.5	1648.6684058094
129	181	50	1645.2495939974
129	182	50.5	1641.575068038
129	183	51	1637.976340875
129	184	51.5	1634.551281712
129	185	52	1630.789981124
129	186	52.5	1626.6984228306
129	187	53	1623.18397748
129	188	53.5	1619.7201947365
129	189	54	1615.6755088167
129	190	54.5	1611.1983303251
129	191	55	1606.2187929256
129	192	55.5	1600.9222490983
129	193	56	1595.6654702304
129	194	56.5	1590.4267498935
129	195	57	1585.2279640073
129	196	57.5	1580.0473864032
129	197	58	1574.9220304936
129	198	58.5	1569.8009275747
129	199	59	1564.7041124767
129	200	59.5	1559.6253891662
129	201	60	1554.5509500336
129	202	60.5	1549.4863181701
129	203	61	1544.4275588002
129	204	61.5	1539.3675306337
129	205	62	1534.3302503023
129	206	62.5	1529.3258897401
129	207	63	1524.3115657885
129	208	63.5	1519.3030575039
129	209	64	1514.2887058342
129	282	64.5	1509.2747659059
129	283	65	1504.2598500336
129	284	65.5	1499.2500252444
129	285	66	1494.2490622057
129	286	66.5	1489.2521108547
129	287	67	1484.2506520543
129	288	67.5	1479.250416589
129	289	68	1474.2666498357
129	363	68.5	1469.2558923401
129	437	69	1464.2226508567
129	511	69.5	1459.2084077047
129	512	70	1454.2187339263
129	513	70.5	1449.2354408028
129	514	71	1444.2485157568
129	515	71.5	1439.4279079875
129	517	72	1434.9437098708
129	518	72.5	1430.5218803436
129	519	73	1425.9923878917
129	520	73.5	1421.4583390402
130	41	19.5	2.065513285686
130	42	20	2.9240993874418
130	43	20.5	3.7950039299941
130	44	21	4.7734805876311
130	45	21.5	5.6879023730467
130	46	22	6.5898310169941
130	47	22.5	7.5990618778989
130	48	23	7.7721649363796
130	49	23.5	7.3721099343199
130	50	24	7.149379716798
130	51	24.5	6.9863222823231
130	52	25	6.8298737109141
130	53	25.5	6.6916455239091
130	54	26	6.6829343015967
130	55	26.5	7.0223018462572
130	56	27	7.3812398442971
130	57	27.5	7.4859868196552
130	58	28	7.6493453207604
130	59	28.5	7.6085962153345
130	60	29	7.6921069778571
130	61	29.5	8.1960712383326
130	62	30	8.8076184742723
130	63	30.5	8.8232325907748
130	64	31	8.6536523406029
130	65	31.5	8.3975680951608
130	144	32	7.9078427221458
130	145	32.5	7.6718454924393
130	146	33	7.4304328828099
130	147	33.5	7.3892073234266
130	148	34	7.1827348395662
130	149	34.5	6.9367784754076
130	150	35	6.8914933502554
130	151	35.5	6.8103046186079
130	152	36	6.583104115433
130	153	36.5	6.5493105384325
130	154	37	6.4770235902395
130	155	37.5	6.3563266437398
130	156	38	6.3084773316172
130	157	38.5	6.2440419672607
130	158	39	6.254683664116
130	159	39.5	6.1531057115766
130	160	40	6.1529508502927
130	162	40.5	6.1525457857777
130	163	41	6.1628783526571
130	164	41.5	6.0280770226662
130	165	42	6.0688171591075
130	166	42.5	6.0877214581592
130	167	43	6.0087528133421
130	168	43.5	5.9164472176116
130	169	44	6.0115613468139
130	170	44.5	6.0493846294703
130	171	45	5.9477805789484
130	172	45.5	5.8989934514524
130	173	46	5.9731556322724
130	174	46.5	6.0015806921055
130	175	47	5.9493303083369
130	176	47.5	5.9500719132143
130	177	48	5.9553636209574
130	178	48.5	6.2227921841613
130	179	49	6.6823362910289
130	180	49.5	6.5214442974481
130	181	50	7.1333069474027
130	182	50.5	7.3690525157247
130	183	51	6.8357990082831
130	184	51.5	7.154131557083
130	185	52	7.7506347829881
130	186	52.5	8.3708412832715
130	187	53	6.1518612067789
130	188	53.5	7.4518612067789
130	189	54	8.42813143616
130	190	54.5	9.2932364068475
130	191	55	10.411358237734
130	192	55.5	10.607510293846
130	193	56	10.481316081548
130	194	56.5	10.487583736657
130	195	57	10.372160036231
130	196	57.5	10.391601304864
130	197	58	10.255740195866
130	198	58.5	10.15501739778
130	199	59	10.205510019882
130	200	59.5	10.183727817256
130	201	60	10.145308173181
130	202	60.5	10.121236740949
130	203	61	10.151149889364
130	204	61.5	10.131181819541
130	205	62	10.028529524405
130	206	62.5	10.006415300266
130	207	63	10.106749217645
130	208	63.5	10.093507281577
130	209	64	10.021789462369
130	282	64.5	10.011963884952
130	283	65	10.0790737271
130	284	65.5	10.006335837047
130	285	66	10.027849982509
130	286	66.5	9.9510928951917
130	287	67	10.002285840101
130	288	67.5	9.996569190997
130	289	68	9.9467534878162
130	363	68.5	9.9843568525826
130	437	69	10.032342327419
130	511	69.5	10.03402670072
130	512	70	9.9335234837664
130	513	70.5	9.9839235881316
130	514	71	9.9831750790155
130	515	71.5	9.3029632911396
130	517	72	8.7899080975049
130	518	72.5	8.8808722413343
130	519	73	9.1664234612898
130	520	73.5	8.7820791852663
131	42	20	1.7171722035117
131	43	20.5	1.7418090851046
131	44	21	1.9569533152739
131	45	21.5	1.8288435708312
131	46	22	1.8038572878949
131	47	22.5	2.0184617218096
131	48	23	0.34620611696141
131	49	23.5	-0.80011000411945
131	50	24	-0.44546043504378
131	51	24.5	-0.32611486894979
131	52	25	-0.31289714281812
131	53	25.5	-0.27645637400994
131	54	26	-0.017422444624829
131	55	26.5	0.67873508932102
131	56	27	0.71787599607982
131	57	27.5	0.20949395071612
131	58	28	0.32671700221055
131	59	28.5	-0.081498210851791
131	60	29	0.16702152504503
131	61	29.5	1.0079285209512
131	62	30	1.2230944718794
131	63	30.5	0.031228233004967
131	64	31	-0.33916050034381
131	65	31.5	-0.5121684908843
131	144	32	-0.97945074602991
131	145	32.5	-0.47199445941309
131	146	33	-0.4828252192588
131	147	33.5	-0.082451118766572
131	148	34	-0.4129449677207
131	149	34.5	-0.49191272831717
131	150	35	-0.090570250304395
131	151	35.5	-0.16237746329511
131	152	36	-0.45440100634965
131	153	36.5	-0.06758715400105
131	154	37	-0.14457389638603
131	155	37.5	-0.24139389299942
131	156	38	-0.095698624245115
131	157	38.5	-0.128870728713
131	158	39	0.021283393710529
131	159	39.5	-0.20315590507876
131	160	40	-0.00030972256787543
131	162	40.5	-0.00081012903002531
131	163	41	0.020665133758841
131	164	41.5	-0.26960265998173
131	165	42	0.081480272882519
131	166	42.5	0.037808598103345
131	167	43	-0.15793728963408
131	168	43.5	-0.18461119146111
131	169	44	0.1902282584047
131	170	44.5	0.075646565312672
131	171	45	-0.2032081010438
131	172	45.5	-0.09757425499183
131	173	46	0.14832436163989
131	174	46.5	0.056850119666203
131	175	47	-0.10450076753727
131	176	47.5	0.0014832097548823
131	177	48	0.010583415486206
131	178	48.5	0.53485712640785
131	179	49	0.91908821373516
131	180	49.5	-0.32178398716166
131	181	50	1.2237252999093
131	182	50.5	0.471491136644
131	183	51	-1.0665070148832
131	184	51.5	0.63666509759985
131	185	52	1.1930064518102
131	186	52.5	1.2404130005668
131	187	53	-4.4379601529852
131	188	53.5	2.6
131	189	54	1.9525404587621
131	190	54.5	1.7302099413751
131	191	55	2.2362436617725
131	192	55.5	0.39230411222455
131	193	56	-0.25238842459522
131	194	56.5	0.012535310217835
131	195	57	-0.23084740085222
131	196	57.5	0.038882537266517
131	197	58	-0.27172221799725
131	198	58.5	-0.20144559617241
131	199	59	0.10098524420443
131	200	59.5	-0.043564405251566
131	201	60	-0.076839288150698
131	202	60.5	-0.048142864463308
131	203	61	0.059826296830135
131	204	61.5	-0.03993613964688
131	205	62	-0.20530459027066
131	206	62.5	-0.044228448278332
131	207	63	0.20066783475761
131	208	63.5	-0.026483872135476
131	209	64	-0.14343563841712
131	282	64.5	-0.019651154833845
131	283	65	0.13421968429555
131	284	65.5	-0.14547578010508
131	285	66	0.043028290923164
131	286	66.5	-0.15351417463382
131	287	67	0.10238588981849
131	288	67.5	-0.01143329820788
131	289	68	-0.09963140636161
131	363	68.5	0.075206729532841
131	437	69	0.09597094967253
131	511	69.5	0.0033687466014278
131	512	70	-0.20100643390634
131	513	70.5	0.10080020873034
131	514	71	-0.0014970182322536
131	515	71.5	-1.3604235757516
131	517	72	-1.0261103872696
131	518	72.5	0.18192828765887
131	519	73	0.57110243991109
131	520	73.5	-0.768688552047
132	42	20	2.4634731273316
132	43	20.5	2.8911715661316
132	44	21	3.6016170273511
132	45	21.5	3.9083340027807
132	46	22	4.3191240792421
132	47	22.5	5.2136739820135
132	48	23	2.1767759861862
132	49	23.5	0.973
132	50	24	0.973
132	51	24.5	0.973
132	52	25	0.973
132	53	25.5	0.973
132	54	26	1.4318967657698
132	55	26.5	2.6294197387639
132	56	27	2.780235558582
132	57	27.5	1.8878311193926
132	58	28	2.1226518125731
132	59	28.5	1.3682875896638
132	60	29	1.832735819701
132	61	29.5	3.5471540633161
132	62	30	4.1941812018731
132	63	30.5	1.6654899682821
132	64	31	0.973
132	65	31.5	0.973
132	144	32	0.973
132	145	32.5	0.973
132	146	33	0.973
132	147	33.5	1.3568970826736
132	148	34	0.973
132	149	34.5	0.973
132	150	35	1.3222572393175
132	151	35.5	0.973
132	152	36	0.973
132	153	36.5	1.345211588078
132	154	37	1.2218786289425
132	155	37.5	0.973
132	156	38	1.2920186436612
132	157	38.5	1.2397750924275
132	158	39	1.4664122548565
132	159	39.5	0.973
132	160	40	1.4278781202724
132	162	40.5	1.4271123760589
132	163	41	1.4596135926918
132	164	41.5	0.973
132	165	42	1.5425798855973
132	166	42.5	1.4799841085226
132	167	43	0.973
132	168	43.5	0.973
132	169	44	1.6956672181913
132	170	44.5	1.5325581813796
132	171	45	0.973
132	172	45.5	1.2748132536632
132	173	46	1.6313496817396
132	174	46.5	1.5017127951677
132	175	47	1.2666162522416
132	176	47.5	1.4186181866301
132	177	48	1.4319883195171
132	178	48.5	2.2345691142789
132	179	49	2.9400601049272
132	180	49.5	0.973
132	181	50	3.5913808162635
132	182	50.5	2.339790285089
132	183	51	0.973
132	184	51.5	2.5866441403632
132	185	52	3.7553224240262
132	186	52.5	4.0703698856349
132	187	53	0.973
132	188	53.5	6.1770407305666
132	189	54	5.537838836663
132	190	54.5	5.5075485751531
132	191	55	7.3275408966978
132	192	55.5	2.7348551980467
132	193	56	0.973
132	194	56.5	1.7541653112831
132	195	57	0.973
132	196	57.5	1.8123294647764
132	197	58	0.973
132	198	58.5	1.2036102288391
132	199	59	1.9488819948211
132	200	59.5	1.5919086248307
132	201	60	1.5080008273084
132	202	60.5	1.5765972096122
132	203	61	1.8426835776063
132	204	61.5	1.5972818495597
132	205	62	0.973
132	206	62.5	1.578607318248
132	207	63	2.1816905425479
132	208	63.5	1.6274824552716
132	209	64	1.3400020797727
132	282	64.5	1.6382720344832
132	283	65	2.0168294259374
132	284	65.5	1.3344414589472
132	285	66	1.7908833201187
132	286	66.5	1.3129110754176
132	287	67	1.9317589099784
132	288	67.5	1.6569735347577
132	289	68	1.4419092773794
132	363	68.5	1.8645560923738
132	437	69	1.9192763346819
132	511	69.5	1.6955128494628
132	512	70	1.19853675119
132	513	70.5	1.9260964946664
132	514	71	1.6799000058562
132	515	71.5	0.973
132	517	72	0.973
132	518	72.5	1.9924978659558
132	519	73	2.8849648641207
132	520	73.5	0.973
133	65	31.5	31.5
133	209	64	64
134	67	31.500001	1
134	211	64.000006	1
134	523	73.549267872884	1
134	596	73.569071872884	1
134	669	73.603799872884	1
135	161	40.45905385213	40.45905385213
135	516	71.502400226425	71.502400226425
136	161	40.45905385213	40.45905385213
136	516	71.502400226425	71.502400226425
137	161	40.45905385213	40.45905385213
137	516	71.502400226425	71.502400226425
138	292	68.168604100668	1
139	366	68.606826433194	1
140	440	69.293231661361	1
141	516	71.502400226425	71.502400226425
141	516	71.502400226425	71.502400226425
141	516	71.502400226425	71.502400226425
141	516	71.502400226425	71.502400226425
142	521	73.549258478128	7
142	594	73.569066927975	17
142	667	73.603798291671	11
143	560	73.549500977205	7
144	645	73.569305306749	17
145	710	73.60403308748	11

