version 3
run Default-0-20230108-14:08:57-69813
attr configname Default
attr datetime 20230108-14:08:57
attr datetimef 20230108-140857
attr experiment Default
attr inifile omnetpp.ini
attr iterationvars ""
attr iterationvarsd ""
attr iterationvarsf ""
attr measurement ""
attr network v5_0
attr processid 69813
attr repetition 0
attr replication #0
attr resultdir results
attr runnumber 0
attr seedset 0
config image-path ../../../inet4.4/images:../../../veins-5.2/images
config cmdenv-express-mode true
config cmdenv-autoflush true
config cmdenv-status-frequency 1s
config **.cmdenv-log-level info
config image-path ../../images
config network v5_0
config debug-on-errors true
config print-undisposed true
config **.scalar-recording true
config **.vector-recording true
config *.playgroundSizeX 3500m
config *.playgroundSizeY 3500m
config *.playgroundSizeZ 50m
config *.annotations.draw true
config *.obstacles.obstacles "xmldoc(\"config.xml\", \"//AnalogueModel[@type='SimpleObstacleShadowing']/obstacles\")"
config *.manager.updateInterval 0.5s
config *.manager.host "\"localhost\""
config *.manager.port 9999
config *.manager.autoShutdown true
config *.manager.launchConfig "xmldoc(\"v5_0_Final.launchd.xml\")"
config *.rsu[0].mobility.x 2000
config *.rsu[0].mobility.y 2000
config *.rsu[0].mobility.z 3
config *.rsu[*].applType "\"RSU\""
config *.rsu[*].appl.headerLength "80 bit"
config *.rsu[*].appl.sendBeacons false
config *.rsu[*].appl.dataOnSch false
config *.rsu[*].appl.beaconInterval 1s
config *.rsu[*].appl.beaconUserPriority 7
config *.rsu[*].appl.dataUserPriority 5
config *.rsu[*].nic.phy80211p.antennaOffsetZ "0 m"
config *.connectionManager.sendDirect true
config *.connectionManager.maxInterfDist 2600m
config *.connectionManager.drawMaxIntfDist false
config *.**.nic.mac1609_4.useServiceChannel false
config *.**.nic.mac1609_4.txPower 20mW
config *.**.nic.mac1609_4.bitrate 6Mbps
config *.**.nic.phy80211p.minPowerLevel -110dBm
config *.**.nic.phy80211p.useNoiseFloor true
config *.**.nic.phy80211p.noiseFloor -98dBm
config *.**.nic.phy80211p.decider "xmldoc(\"config.xml\")"
config *.**.nic.phy80211p.analogueModels "xmldoc(\"config.xml\")"
config *.**.nic.phy80211p.usePropagationDelay true
config *.**.nic.phy80211p.antenna "xmldoc(\"antenna.xml\", \"/root/Antenna[@id='monopole']\")"
config *.node[*].nic.phy80211p.antennaOffsetY "0 m"
config *.node[*].nic.phy80211p.antennaOffsetZ "1.895 m"
config *.node[*].applType "\"VeinsApp\""
config *.node[*].appl.headerLength "80 bit"
config *.node[*].appl.sendBeacons false
config *.node[*].appl.dataOnSch false
config *.node[*].appl.beaconInterval 1s
config *.node[*].veinsmobility.x 0
config *.node[*].veinsmobility.y 0
config *.node[*].veinsmobility.z 0
config *.node[*].veinsmobility.setHostSpeed false
config *.node[*0].veinsmobility.accidentCount 0
config *.node[*0].veinsmobility.accidentStart 73s
config *.node[*0].veinsmobility.accidentDuration 50s

vector 0 v5_0.node[0].veinsmobility posx ETV
vector 1 v5_0.node[0].veinsmobility posy ETV
vector 2 v5_0.node[1].veinsmobility posx ETV
vector 3 v5_0.node[1].veinsmobility posy ETV
vector 4 v5_0.node[2].veinsmobility posx ETV
vector 5 v5_0.node[2].veinsmobility posy ETV
vector 6 v5_0.node[3].veinsmobility posx ETV
vector 7 v5_0.node[3].veinsmobility posy ETV
vector 8 v5_0.node[0].veinsmobility speed ETV
vector 9 v5_0.node[1].veinsmobility speed ETV
vector 10 v5_0.node[2].veinsmobility speed ETV
vector 11 v5_0.node[3].veinsmobility speed ETV
vector 12 v5_0.node[0].veinsmobility acceleration ETV
vector 13 v5_0.node[0].veinsmobility co2emission ETV
vector 14 v5_0.node[1].veinsmobility acceleration ETV
vector 15 v5_0.node[1].veinsmobility co2emission ETV
vector 16 v5_0.node[2].veinsmobility acceleration ETV
vector 17 v5_0.node[2].veinsmobility co2emission ETV
vector 18 v5_0.node[3].veinsmobility acceleration ETV
vector 19 v5_0.node[3].veinsmobility co2emission ETV
vector 20 v5_0.node[4].veinsmobility posx ETV
vector 21 v5_0.node[4].veinsmobility posy ETV
vector 22 v5_0.node[5].veinsmobility posx ETV
vector 23 v5_0.node[5].veinsmobility posy ETV
vector 24 v5_0.node[6].veinsmobility posx ETV
vector 25 v5_0.node[6].veinsmobility posy ETV
vector 26 v5_0.node[4].veinsmobility speed ETV
vector 27 v5_0.node[5].veinsmobility speed ETV
vector 28 v5_0.node[6].veinsmobility speed ETV
vector 29 v5_0.node[7].veinsmobility posx ETV
vector 30 v5_0.node[7].veinsmobility posy ETV
vector 31 v5_0.node[4].veinsmobility acceleration ETV
vector 32 v5_0.node[4].veinsmobility co2emission ETV
vector 33 v5_0.node[5].veinsmobility acceleration ETV
vector 34 v5_0.node[5].veinsmobility co2emission ETV
vector 35 v5_0.node[6].veinsmobility acceleration ETV
vector 36 v5_0.node[6].veinsmobility co2emission ETV
vector 37 v5_0.node[7].veinsmobility speed ETV
vector 38 v5_0.node[7].veinsmobility acceleration ETV
vector 39 v5_0.node[7].veinsmobility co2emission ETV
vector 40 v5_0.node[8].veinsmobility posx ETV
vector 41 v5_0.node[8].veinsmobility posy ETV
vector 42 v5_0.node[9].veinsmobility posx ETV
vector 43 v5_0.node[9].veinsmobility posy ETV
vector 44 v5_0.node[10].veinsmobility posx ETV
vector 45 v5_0.node[10].veinsmobility posy ETV
vector 46 v5_0.node[8].veinsmobility speed ETV
vector 47 v5_0.node[9].veinsmobility speed ETV
vector 48 v5_0.node[10].veinsmobility speed ETV
vector 49 v5_0.node[8].veinsmobility acceleration ETV
vector 50 v5_0.node[8].veinsmobility co2emission ETV
vector 51 v5_0.node[9].veinsmobility acceleration ETV
vector 52 v5_0.node[9].veinsmobility co2emission ETV
vector 53 v5_0.node[10].veinsmobility acceleration ETV
vector 54 v5_0.node[10].veinsmobility co2emission ETV
vector 55 v5_0.node[11].veinsmobility posx ETV
vector 56 v5_0.node[11].veinsmobility posy ETV
vector 57 v5_0.node[11].veinsmobility speed ETV
vector 58 v5_0.node[12].veinsmobility posx ETV
vector 59 v5_0.node[12].veinsmobility posy ETV
vector 60 v5_0.node[11].veinsmobility acceleration ETV
vector 61 v5_0.node[11].veinsmobility co2emission ETV
vector 62 v5_0.node[13].veinsmobility posx ETV
vector 63 v5_0.node[13].veinsmobility posy ETV
vector 64 v5_0.node[12].veinsmobility speed ETV
vector 65 v5_0.node[12].veinsmobility acceleration ETV
vector 66 v5_0.node[12].veinsmobility co2emission ETV
vector 67 v5_0.node[13].veinsmobility speed ETV
vector 68 v5_0.node[14].veinsmobility posx ETV
vector 69 v5_0.node[14].veinsmobility posy ETV
vector 70 v5_0.node[13].veinsmobility acceleration ETV
vector 71 v5_0.node[13].veinsmobility co2emission ETV
vector 72 v5_0.node[14].veinsmobility speed ETV
vector 73 v5_0.node[14].veinsmobility acceleration ETV
vector 74 v5_0.node[14].veinsmobility co2emission ETV
vector 75 v5_0.node[15].veinsmobility posx ETV
vector 76 v5_0.node[15].veinsmobility posy ETV
vector 77 v5_0.node[16].veinsmobility posx ETV
vector 78 v5_0.node[16].veinsmobility posy ETV
vector 79 v5_0.node[15].veinsmobility speed ETV
vector 80 v5_0.node[16].veinsmobility speed ETV
vector 81 v5_0.node[17].veinsmobility posx ETV
vector 82 v5_0.node[17].veinsmobility posy ETV
vector 83 v5_0.node[15].veinsmobility acceleration ETV
vector 84 v5_0.node[15].veinsmobility co2emission ETV
vector 85 v5_0.node[16].veinsmobility acceleration ETV
vector 86 v5_0.node[16].veinsmobility co2emission ETV
vector 87 v5_0.node[17].veinsmobility speed ETV
vector 88 v5_0.node[17].veinsmobility acceleration ETV
vector 89 v5_0.node[17].veinsmobility co2emission ETV
vector 90 v5_0.node[18].veinsmobility posx ETV
vector 91 v5_0.node[18].veinsmobility posy ETV
vector 92 v5_0.node[18].veinsmobility speed ETV
vector 93 v5_0.node[18].veinsmobility acceleration ETV
vector 94 v5_0.node[18].veinsmobility co2emission ETV
vector 95 v5_0.node[19].veinsmobility posx ETV
vector 96 v5_0.node[19].veinsmobility posy ETV
vector 97 v5_0.node[19].veinsmobility speed ETV
vector 98 v5_0.node[20].veinsmobility posx ETV
vector 99 v5_0.node[20].veinsmobility posy ETV
vector 100 v5_0.node[19].veinsmobility acceleration ETV
vector 101 v5_0.node[19].veinsmobility co2emission ETV
vector 102 v5_0.node[20].veinsmobility speed ETV
vector 103 v5_0.node[20].veinsmobility acceleration ETV
vector 104 v5_0.node[20].veinsmobility co2emission ETV
vector 105 v5_0.node[21].veinsmobility posx ETV
vector 106 v5_0.node[21].veinsmobility posy ETV
vector 107 v5_0.node[21].veinsmobility speed ETV
vector 108 v5_0.node[21].veinsmobility acceleration ETV
vector 109 v5_0.node[21].veinsmobility co2emission ETV
0	2	0.5	2631.7350595066
0	3	1	2631.6926603558
0	4	1.5	2631.6229630968
0	5	2	2631.5282912727
0	6	2.5	2631.4086490547
0	7	3	2631.2604225505
0	8	3.5	2631.0878849679
0	9	4	2630.892145407
0	10	4.5	2630.6724391839
0	11	5	2630.4276965775
0	12	5.5	2630.1573760558
0	13	6	2629.8625589869
0	14	6.5	2629.5448277204
0	15	7	2629.2030409186
0	16	7.5	2628.6408029457
0	17	8	2627.8116486142
0	18	8.5	2626.9391961291
0	19	9	2626.0184382494
0	20	9.5	2625.0464957781
0	21	10	2624.0224871623
0	22	10.5	2622.9469447999
0	23	11	2621.8176152725
0	24	11.5	2620.6311656146
0	25	12	2619.3974312966
0	26	12.5	2618.1143565062
0	27	13	2616.7776122186
0	28	13.5	2615.3838827169
0	29	14	2613.933876192
0	30	14.5	2612.430882662
0	31	15	2610.8750346797
0	32	15.5	2609.2680088609
0	33	16	2607.6054052793
0	34	16.5	2605.8840043985
0	35	17	2604.1164308966
0	36	17.5	2602.2985366323
0	37	18	2600.4298359854
0	38	18.5	2598.5080573106
0	39	19	2596.5386160006
0	40	19.5	2594.5145886635
0	41	20	2592.4347862339
0	42	20.5	2590.3038963825
0	43	21	2588.1187586169
0	44	21.5	2585.876224402
0	45	22	2583.5771736375
0	46	22.5	2581.2272843939
0	47	23	2578.8250272302
0	48	23.5	2576.3650223406
0	49	24	2573.8493392041
0	50	24.5	2571.2797833098
0	51	25	2568.6863330575
0	52	25.5	2566.0916482897
0	53	26	2563.498984852
0	54	26.5	2560.9030062138
0	55	27	2558.3092978451
0	56	27.5	2555.7130857587
0	57	28	2553.1184064959
0	58	28.5	2550.5230329406
0	59	29	2547.9285410434
0	60	29.5	2545.3335305103
0	61	30	2542.739428506
0	62	30.5	2540.1439816806
0	63	31	2537.5483003752
0	64	31.5	2534.9544071521
0	65	32	2532.3592119595
0	66	32.5	2529.7648866439
0	67	33	2527.1705369354
0	146	33.5	2524.5772709372
0	147	34	2521.9808218135
0	148	34.5	2519.3844282731
0	149	35	2516.7892806227
0	150	35.5	2514.1939739176
0	151	36	2511.5996591776
0	152	36.5	2509.0064994983
0	153	37	2506.4130835157
0	233	37.5	2503.8182156581
0	313	38	2501.222583251
0	393	38.5	2498.628201986
0	473	39	2496.0341355706
0	474	39.5	2493.4383296432
0	475	40	2490.8435546545
0	552	40.5	2488.2493534428
0	553	41	2485.655102922
0	554	41.5	2483.0601970108
0	555	42	2480.4656198064
0	632	42.5	2477.8701654738
0	870	43	2475.2771442261
0	871	43.5	2472.6828952592
0	1109	44	2470.0874233606
0	1267	44.5	2467.4937271242
0	1268	45	2464.8991101197
0	1269	45.5	2462.3044010754
0	1270	46	2459.7108201223
0	1271	46.5	2457.1153178372
0	1354	47	2454.51942465
0	1526	47.5	2452.1049758391
0	1613	48	2450.4052049746
0	1616	48.5	2448.7039828986
0	1619	49	2447.0023738908
0	1620	49.5	2445.4085903175
0	1621	50	2445.022678212
0	1622	50.5	2444.6394808504
0	1623	51	2444.2161111271
0	1626	51.5	2443.8162894422
0	1627	52	2443.4598866852
0	1628	52.5	2443.1468846647
0	1629	53	2442.8773015719
0	1630	53.5	2442.6511374067
0	1631	54	2442.4766616474
0	1632	54.5	2442.4362006881
0	1633	55	2442.3958884771
0	1634	55.5	2442.3652781798
0	1635	56	2442.3360842583
0	1636	56.5	2442.3120745602
0	1637	57	2442.2866568071
0	1638	57.5	2442.2598584306
0	1639	58	2442.2316234537
0	1640	58.5	2442.2020681472
0	1641	59	2442.1713431246
0	1642	59.5	2442.1391856663
0	1643	60	2442.088958404
0	1644	60.5	2441.8653528244
0	1645	61	2442.0513644307
0	1646	61.5	2442.4767216791
0	1647	62	2442.9179392915
0	1648	62.5	2443.3737840716
1	2	0.5	3022.4123751242
1	3	1	3022.0353440456
1	4	1.5	3021.415566708
1	5	2	3020.5737050353
1	6	2.5	3019.5097961174
1	7	3	3018.1917037079
1	8	3.5	3016.6574269645
1	9	4	3014.916828474
1	10	4.5	3012.9631083431
1	11	5	3010.786754163
1	12	5.5	3008.3829504047
1	13	6	3005.7613130454
1	14	6.5	3002.9359130058
1	15	7	2999.8966010297
1	16	7.5	2996.6450931979
1	17	8	2993.1979513299
1	18	8.5	2989.5708009005
1	19	9	2985.7428247118
1	20	9.5	2981.7020527357
1	21	10	2977.4448199878
1	22	10.5	2972.9733398687
1	23	11	2968.2782439757
1	24	11.5	2963.345675773
1	25	12	2958.2165254327
1	26	12.5	2952.8822460799
1	27	13	2947.324840147
1	28	13.5	2941.5305228094
1	29	14	2935.5022383137
1	30	14.5	2929.2536646416
1	31	15	2922.7853528736
1	32	15.5	2916.1042734012
1	33	16	2909.1921338886
1	34	16.5	2902.0355493743
1	35	17	2894.6870059334
1	36	17.5	2887.1292580068
1	37	18	2879.3602866642
1	38	18.5	2871.3706477275
1	39	19	2863.1828552512
1	40	19.5	2854.7681257948
1	41	20	2846.1215159176
1	42	20.5	2837.262514228
1	43	21	2828.1779812351
1	44	21.5	2818.8548271619
1	45	22	2809.2967101177
1	46	22.5	2799.5272362214
1	47	23	2789.5400469452
1	48	23.5	2779.3127761837
1	49	24	2768.854027628
1	50	24.5	2758.171307452
1	51	25	2747.3892484205
1	52	25.5	2736.6020569913
1	53	26	2725.8232690776
1	54	26.5	2715.0306984866
1	55	27	2704.2475663582
1	56	27.5	2693.4540252248
1	57	28	2682.6668566819
1	58	28.5	2671.8768016752
1	59	29	2661.0903363554
1	60	29.5	2650.3012150247
1	61	30	2639.5158710303
1	62	30.5	2628.7249357523
1	63	31	2617.933025592
1	64	31.5	2607.148549634
1	65	32	2596.3586605554
1	66	32.5	2585.5723881116
1	67	33	2574.7860142523
1	146	33.5	2564.0041460712
1	147	34	2553.2090435969
1	148	34.5	2542.4141722191
1	149	35	2531.6244808035
1	150	35.5	2520.8341280958
1	151	36	2510.0478996225
1	152	36.5	2499.2664734768
1	153	37	2488.4839817137
1	233	37.5	2477.6954535758
1	313	38	2466.9037467167
1	393	38.5	2456.1172416564
1	473	39	2445.3320456278
1	474	39.5	2434.5396173326
1	475	40	2423.7514753109
1	552	40.5	2412.9657188477
1	553	41	2402.1797573743
1	554	41.5	2391.3910710234
1	555	42	2380.6031350009
1	632	42.5	2369.8111122204
1	870	43	2359.0292063234
1	871	43.5	2348.2421955122
1	1109	44	2337.4500996917
1	1267	44.5	2326.6653871592
1	1268	45	2315.8768460304
1	1269	45.5	2305.0913538206
1	1270	46	2294.3107303949
1	1271	46.5	2283.5221206537
1	1354	47	2272.7318860656
1	1526	47.5	2261.9062922131
1	1613	48	2250.9511356279
1	1616	48.5	2239.9866258716
1	1619	49	2229.0196223091
1	1620	49.5	2218.0480424091
1	1621	50	2206.9662254723
1	1622	50.5	2195.9623648738
1	1623	51	2185.7672492983
1	1626	51.5	2176.5675061094
1	1627	52	2168.3668157468
1	1628	52.5	2161.1647596415
1	1629	53	2154.9617563616
1	1630	53.5	2149.7578059072
1	1631	54	2145.5507062245
1	1632	54.5	2142.2868555058
1	1633	55	2139.0350038158
1	1634	55.5	2135.5093273697
1	1635	56	2131.7345388792
1	1636	56.5	2127.7155241957
1	1637	57	2123.4608133426
1	1638	57.5	2118.9749981649
1	1639	58	2114.2487085368
1	1640	58.5	2109.3014072562
1	1641	59	2104.1583056375
1	1642	59.5	2098.7754267631
1	1643	60	2093.15354414
1	1644	60.5	2087.3117893916
1	1645	61	2081.2393657118
1	1646	61.5	2074.9422290567
1	1647	62	2068.410290055
1	1648	62.5	2061.6618053745
2	2	0.5	1287.3631844854
2	3	1	1287.3971152697
2	4	1.5	1287.4522898303
2	5	2	1287.5264110332
2	6	2.5	1287.62113957
2	7	3	1287.7358140606
2	8	3.5	1287.8709316116
2	9	4	1288.0250132503
2	10	4.5	1288.1995021269
2	11	5	1288.3803450145
2	12	5.5	1288.5613218796
2	13	6	1288.7420702237
2	14	6.5	1288.9232484703
2	15	7	1289.1040265976
2	16	7.5	1289.2841547827
2	17	8	1289.4648170919
2	18	8.5	1289.6461204254
2	19	9	1289.8267889973
2	20	9.5	1290.0076002722
2	21	10	1290.1889275151
2	22	10.5	1290.3695223263
2	23	11	1290.5501811963
2	24	11.5	1292.6540879257
2	25	12	1297.5639150366
2	26	12.5	1302.8378810985
2	27	13	1306.2425469026
2	28	13.5	1308.2562478072
2	29	14	1306.9227445516
2	30	14.5	1302.2154254551
2	31	15	1297.5804711034
2	32	15.5	1293.6998546909
2	33	16	1292.3351438564
2	34	16.5	1292.4916450585
2	35	17	1292.6480421006
2	36	17.5	1292.8044126967
2	37	18	1292.9607878359
2	38	18.5	1293.1163144546
2	39	19	1293.2722946536
2	40	19.5	1293.42863945
2	41	20	1293.5848936621
2	42	20.5	1293.7413971183
2	43	21	1293.8970749625
2	44	21.5	1294.0528945931
2	45	22	1294.2089592799
2	46	22.5	1294.3654001004
2	47	23	1294.5220096927
2	48	23.5	1294.6781146179
2	49	24	1294.8335943035
2	50	24.5	1294.9893859179
2	51	25	1295.1450464214
2	52	25.5	1295.3011772342
2	53	26	1295.4576196355
2	54	26.5	1295.5972772553
2	55	27	1295.7222422449
2	56	27.5	1295.8614929161
2	57	28	1296.0132666022
2	58	28.5	1296.1741153949
2	59	29	1296.3396362179
2	60	29.5	1296.5189786375
2	61	30	1296.7132164361
2	62	30.5	1296.8634114895
2	63	31	1296.9796594604
2	64	31.5	1297.0746293006
2	65	32	1297.1695770607
2	66	32.5	1297.2645506554
2	67	33	1297.359677108
2	146	33.5	1297.0053546188
2	147	34	1296.5672262392
2	148	34.5	1296.0991005796
2	149	35	1295.6436717052
2	150	35.5	1295.2007070808
2	151	36	1294.7851236622
2	152	36.5	1294.5125636539
2	153	37	1294.4019141947
2	233	37.5	1294.4444998708
2	313	38	1294.4870621768
2	393	38.5	1294.5296114372
2	473	39	1294.5974091637
2	474	39.5	1294.7275687865
2	475	40	1294.8578931703
2	552	40.5	1294.9880754326
2	553	41	1295.1181630467
2	554	41.5	1295.2483270118
2	555	42	1295.3785065116
2	632	42.5	1295.5633635888
2	870	43	1296.3890562203
2	871	43.5	1296.9281189074
2	1109	44	1297.3632236316
2	1267	44.5	1297.6261571537
2	1268	45	1297.8244374366
2	1269	45.5	1298.090879785
2	1270	46	1298.4361608364
2	1271	46.5	1298.9411975638
2	1354	47	1299.6294862628
2	1526	47.5	1300.4202688612
2	1613	48	1301.2810126139
2	1616	48.5	1302.2060202378
2	1619	49	1306.4554387565
2	1620	49.5	1307.479871987
2	1621	50	1308.5871834405
2	1622	50.5	1309.6923060738
2	1623	51	1310.7983917224
2	1626	51.5	1311.9028234141
2	1627	52	1313.006744389
2	1628	52.5	1314.1134096591
2	1629	53	1315.2160882422
2	1630	53.5	1316.3219116668
2	1631	54	1317.4548332968
2	1632	54.5	1318.7731161946
2	1633	55	1320.0808581468
2	1634	55.5	1321.3880658024
2	1635	56	1322.6369496842
2	1636	56.5	1323.8475046512
2	1637	57	1325.0410191318
2	1638	57.5	1326.2178633368
2	1639	58	1327.3984415013
2	1640	58.5	1328.580488653
2	1641	59	1329.7583094555
2	1642	59.5	1330.8109268157
2	1643	60	1331.4094457534
2	1644	60.5	1332.0075523928
2	1645	61	1336.1744907856
2	1646	61.5	1343.4164503298
2	1647	62	1350.6563991281
2	1648	62.5	1357.8923533631
3	2	0.5	1828.227079195
3	3	1	1827.4147938192
3	4	1.5	1826.0939434571
3	5	2	1824.3195203077
3	6	2.5	1822.0517682778
3	7	3	1819.3065204602
3	8	3.5	1816.071876375
3	9	4	1812.3832418723
3	10	4.5	1808.2060686797
3	11	5	1803.8767837603
3	12	5.5	1799.544291487
3	13	6	1795.2172698919
3	14	6.5	1790.8799566505
3	15	7	1786.5522220582
3	16	7.5	1782.2400467461
3	17	8	1777.9150847774
3	18	8.5	1773.5747770192
3	19	9	1769.2496651299
3	20	9.5	1764.9211369995
3	21	10	1760.5802568644
3	22	10.5	1756.2569107665
3	23	11	1751.9320311304
3	24	11.5	1748.6357935062
3	25	12	1748.9207613645
3	26	12.5	1749.2960902946
3	27	13	1744.5079231691
3	28	13.5	1738.9547530329
3	29	14	1732.2668259898
3	30	14.5	1727.1903217072
3	31	15	1722.99983963
3	32	15.5	1718.9507568683
3	33	16	1714.6683898177
3	34	16.5	1710.3294051997
3	35	17	1705.9933084091
3	36	17.5	1701.6579448339
3	37	18	1697.3224553019
3	38	18.5	1693.010490939
3	39	19	1688.6859510969
3	40	19.5	1684.3513028137
3	41	20	1680.0191659778
3	42	20.5	1675.6801188635
3	43	21	1671.363961787
3	44	21.5	1667.0438736901
3	45	22	1662.7169914255
3	46	22.5	1658.3796808859
3	47	23	1654.0376911573
3	48	23.5	1649.7096932884
3	49	24	1645.3990301434
3	50	24.5	1641.0797187919
3	51	25	1636.7640424827
3	52	25.5	1632.4353268854
3	53	26	1628.0979725132
3	54	26.5	1624.2259750105
3	55	27	1620.7613296257
3	56	27.5	1616.6744660605
3	57	28	1612.0453686332
3	58	28.5	1606.8896398498
3	59	29	1601.2832893953
3	60	29.5	1595.2087880848
3	61	30	1588.6297658775
3	62	30.5	1581.530589656
3	63	31	1574.2655425621
3	64	31.5	1567.0154586174
3	65	32	1559.7670602947
3	66	32.5	1552.5166897373
3	67	33	1545.2546498692
3	146	33.5	1538.0031152302
3	147	34	1530.7733739205
3	148	34.5	1523.5534358639
3	149	35	1516.3247553399
3	150	35.5	1509.0925059915
3	151	36	1501.846289414
3	152	36.5	1494.5961931935
3	153	37	1487.3409345467
3	233	37.5	1480.0942719905
3	313	38	1472.851586258
3	393	38.5	1465.6111204317
3	473	39	1458.3558320208
3	474	39.5	1451.1042794175
3	475	40	1443.8435475258
3	552	40.5	1436.5907336148
3	553	41	1429.3431928195
3	554	41.5	1422.0913982913
3	555	42	1414.8387382878
3	632	42.5	1407.595704902
3	870	43	1400.7349858135
3	871	43.5	1394.9460962126
3	1109	44	1390.2735910024
3	1267	44.5	1386.7135161944
3	1268	45	1383.2086206041
3	1269	45.5	1379.1482868316
3	1270	46	1374.6234036069
3	1271	46.5	1369.6693310766
3	1354	47	1364.2835673774
3	1526	47.5	1358.4462845782
3	1613	48	1352.1681404524
3	1616	48.5	1345.4212646699
3	1619	49	1338.7021733411
3	1620	49.5	1331.5336601986
3	1621	50	1324.3572842069
3	1622	50.5	1317.1950937416
3	1623	51	1310.0266620703
3	1626	51.5	1302.8689495297
3	1627	52	1295.7145468947
3	1628	52.5	1288.5423587523
3	1629	53	1281.3960079355
3	1630	53.5	1274.2292757118
3	1631	54	1267.0766042247
3	1632	54.5	1259.9630619744
3	1633	55	1252.8548516864
3	1634	55.5	1245.7495455584
3	1635	56	1238.6269551748
3	1636	56.5	1231.5193399116
3	1637	57	1224.386536085
3	1638	57.5	1217.2831780165
3	1639	58	1210.1572820013
3	1640	58.5	1203.0225192718
3	1641	59	1195.9132665219
3	1642	59.5	1188.7771325214
3	1643	60	1181.5869250158
3	1644	60.5	1174.4016705891
3	1645	61	1170.008220369
3	1646	61.5	1170.374673482
3	1647	62	1170.7601827504
3	1648	62.5	1170.9340754179
4	2	0.5	243.31602054439
4	3	1	243.30913937406
4	4	1.5	243.29782204749
4	5	2	243.28247408115
4	6	2.5	243.26342766208
4	7	3	243.24040584138
4	8	3.5	243.21380397596
4	9	4	243.18310993013
4	10	4.5	243.1484340321
4	11	5	243.10924115102
4	12	5.5	243.0663145869
4	13	6	243.01953350392
4	14	6.5	242.96903013124
4	15	7	242.91449734592
4	16	7.5	242.85595049639
4	17	8	242.79419269238
4	18	8.5	242.73295519606
4	19	9	242.26508669544
4	20	9.5	241.68610673898
4	21	10	241.10712287819
4	22	10.5	240.52771094977
4	23	11	239.94936719164
4	24	11.5	239.37215495552
4	25	12	238.79357286438
4	26	12.5	238.21557328652
4	27	13	237.63733651803
4	28	13.5	237.05823889328
4	29	14	236.48010755552
4	30	14.5	235.90121453989
4	31	15	235.80409846641
4	32	15.5	235.0742950117
4	33	16	232.5949971755
4	34	16.5	230.11229897349
4	35	17	227.62779660232
4	36	17.5	225.14764125971
4	37	18	222.66813646222
4	38	18.5	220.19162743364
4	39	19	217.70837988122
4	40	19.5	215.22731687815
4	41	20	212.75282488286
4	42	20.5	210.27264811459
4	43	21	207.79659313092
4	44	21.5	205.31452671322
4	45	22	202.83089691552
4	46	22.5	200.3480367423
4	47	23	197.87148526474
4	48	23.5	195.38814299658
4	49	24	192.90354517207
4	50	24.5	190.41885485034
4	51	25	187.93716550677
4	52	25.5	185.45432597469
4	53	26	182.97469523118
4	54	26.5	180.49361961486
4	55	27	179.61417745787
4	56	27.5	178.8559691062
4	57	28	178.09591954772
4	58	28.5	177.33738778485
4	59	29	176.57814397954
4	60	29.5	175.81934606808
4	61	30	175.05880281387
4	62	30.5	174.29889175657
4	63	31	173.54065930506
4	64	31.5	172.78142890846
4	65	32	172.02238947642
4	66	32.5	171.26402847329
4	67	33	170.50400739827
4	146	33.5	169.79079523124
4	147	34	169.44349024096
4	148	34.5	169.49539697205
4	149	35	169.59012659499
4	150	35.5	169.6847860238
4	151	36	169.7796467169
4	152	36.5	169.87425518362
4	153	37	170.12243900937
4	233	37.5	170.40556825069
4	313	38	170.68902704504
4	393	38.5	170.97228521679
4	473	39	171.25559044897
4	474	39.5	171.5390419754
4	475	40	171.82247454638
4	552	40.5	172.10592645709
4	553	41	172.38946074515
4	554	41.5	172.6729433944
4	555	42	172.95657042495
4	632	42.5	173.23988411739
4	870	43	173.61277161411
4	871	43.5	174.14280516421
4	1109	44	174.67226522055
4	1267	44.5	176.09652246546
4	1268	45	178.58705503435
4	1269	45.5	181.07482282538
4	1270	46	183.56480070169
4	1271	46.5	186.05373565783
4	1354	47	188.58123323927
4	1526	47.5	191.17984637397
4	1613	48	193.77774498193
4	1616	48.5	196.67387435597
4	1619	49	200.19107397192
4	1620	49.5	203.72778743366
4	1621	50	207.26647331018
4	1622	50.5	210.79940940742
4	1623	51	214.33261358016
4	1626	51.5	217.86818029277
4	1627	52	221.40024221234
4	1628	52.5	224.93759651517
4	1629	53	228.4735406317
4	1630	53.5	232.01025300391
4	1631	54	235.5882561797
4	1632	54.5	239.87695087795
4	1633	55	244.16687112593
4	1634	55.5	248.46016390785
4	1635	56	252.75870260666
4	1636	56.5	257.05186138733
4	1637	57	261.35513759439
4	1638	57.5	265.64738122816
4	1639	58	269.9436453149
4	1640	58.5	274.23756451625
4	1641	59	278.52956969908
4	1642	59.5	282.82938435557
4	1643	60	287.12722960976
4	1644	60.5	291.42781023402
4	1645	61	295.66003877192
4	1646	61.5	299.59344093536
4	1647	62	303.53082128626
4	1648	62.5	307.46605655144
5	2	0.5	2497.1688996973
5	3	1	2496.3316489356
5	4	1.5	2494.9546389403
5	5	2	2493.0872100228
5	6	2.5	2490.7697802708
5	7	3	2487.9686525557
5	8	3.5	2484.7319310447
5	9	4	2480.9973027781
5	10	4.5	2476.7781916922
5	11	5	2472.0094869528
5	12	5.5	2466.7864948306
5	13	6	2461.0945128687
5	14	6.5	2454.9496297827
5	15	7	2448.3144770721
5	16	7.5	2441.1909222081
5	17	8	2433.5380245307
5	18	8.5	2425.5499333367
5	19	9	2417.5871251784
5	20	9.5	2409.6034747697
5	21	10	2401.6197705222
5	22	10.5	2393.6301635792
5	23	11	2385.6552858138
5	24	11.5	2377.6960107926
5	25	12	2369.7178466134
5	26	12.5	2361.7477148054
5	27	13	2353.7743123379
5	28	13.5	2345.7890393818
5	29	14	2337.8170907153
5	30	14.5	2329.834639146
5	31	15	2321.8400533656
5	32	15.5	2313.9513235185
5	33	16	2306.358641657
5	34	16.5	2298.7555464059
5	35	17	2291.1469260082
5	36	17.5	2283.5516180908
5	37	18	2275.9583024252
5	38	18.5	2268.3741610982
5	39	19	2260.7693834985
5	40	19.5	2253.1712959325
5	41	20	2245.5933316341
5	42	20.5	2237.9979581023
5	43	21	2230.4152072575
5	44	21.5	2222.814046802
5	45	22	2215.2080986015
5	46	22.5	2207.6045073243
5	47	23	2200.0202360004
5	48	23.5	2192.4151683394
5	49	24	2184.8062556228
5	50	24.5	2177.1970596397
5	51	25	2169.5970539479
5	52	25.5	2161.9935258832
5	53	26	2154.399824515
5	54	26.5	2146.8016983224
5	55	27	2138.8746753475
5	56	27.5	2130.9304732559
5	57	28	2122.9669797411
5	58	28.5	2115.019389079
5	59	29	2107.0643379204
5	60	29.5	2099.1139586596
5	61	30	2091.1452923995
5	62	30.5	2083.1832500445
5	63	31	2075.2387954444
5	64	31.5	2067.2838847786
5	65	32	2059.3309749616
5	66	32.5	2051.3851734512
5	67	33	2043.4219783731
5	146	33.5	2035.4573568702
5	147	34	2027.4610729283
5	148	34.5	2019.4810722796
5	149	35	2011.4843132757
5	150	35.5	2003.4934798256
5	151	36	1995.4856563201
5	152	36.5	1987.4991249219
5	153	37	1979.6536396155
5	233	37.5	1971.6674700528
5	313	38	1963.6720048534
5	393	38.5	1955.6821985766
5	473	39	1947.6910648718
5	474	39.5	1939.6958046798
5	475	40	1931.7010791581
5	552	40.5	1923.7058081245
5	553	41	1915.7082134867
5	554	41.5	1907.7120754188
5	555	42	1899.7118648142
5	632	42.5	1891.7204924747
5	870	43	1883.7359081525
5	871	43.5	1875.7509871386
5	1109	44	1867.7747057695
5	1267	44.5	1859.9732490843
5	1268	45	1852.3763415627
5	1269	45.5	1844.7878674828
5	1270	46	1837.1926519489
5	1271	46.5	1829.6006176481
5	1354	47	1822.0174402529
5	1526	47.5	1814.4555595871
5	1613	48	1806.8957581716
5	1616	48.5	1799.471004121
5	1619	49	1792.3053684356
5	1620	49.5	1785.131542041
5	1621	50	1777.9537148234
5	1622	50.5	1770.7875503879
5	1623	51	1763.6208421923
5	1626	51.5	1756.4493418494
5	1627	52	1749.2849505851
5	1628	52.5	1742.1098243156
5	1629	53	1734.9375584517
5	1630	53.5	1727.7637342662
5	1631	54	1720.6248370688
5	1632	54.5	1713.8965561865
5	1633	55	1707.166352611
5	1634	55.5	1700.4308580654
5	1635	56	1693.6871335097
5	1636	56.5	1686.9518491905
5	1637	57	1680.2006922364
5	1638	57.5	1673.4668436376
5	1639	58	1666.7266875869
5	1640	58.5	1659.9902102891
5	1641	59	1653.2567357821
5	1642	59.5	1646.511009451
5	1643	60	1639.7683727993
5	1644	60.5	1633.0214447873
5	1645	61	1626.2429542998
5	1646	61.5	1619.292198956
5	1647	62	1612.3344137166
5	1648	62.5	1605.3787845438
6	2	0.5	1630.0247913966
6	3	1	1630.0082108838
6	4	1.5	1629.9812774651
6	5	2	1629.8417228467
6	6	2.5	1629.598968075
6	7	3	1629.3054750046
6	8	3.5	1628.9658557308
6	9	4	1628.5728588598
6	10	4.5	1628.1282675097
6	11	5	1627.6355270261
6	12	5.5	1627.0910144426
6	13	6	1626.4940830157
6	14	6.5	1625.8345458684
6	15	7	1625.0961785339
6	16	7.5	1624.322276724
6	17	8	1623.6989221299
6	18	8.5	1623.0772683261
6	19	9	1622.4546982928
6	20	9.5	1621.8158716178
6	21	10	1621.1479699811
6	22	10.5	1620.4805658566
6	23	11	1619.8128705663
6	24	11.5	1619.1453593093
6	25	12	1618.477649382
6	26	12.5	1617.8102521775
6	27	13	1617.1432332682
6	28	13.5	1616.4748463017
6	29	14	1615.5620805648
6	30	14.5	1614.8538707139
6	31	15	1614.1444828574
6	32	15.5	1613.4359561502
6	33	16	1612.7275783645
6	34	16.5	1612.0191638161
6	35	17	1611.3111493622
6	36	17.5	1610.6013700862
6	37	18	1609.9844655549
6	38	18.5	1609.3916057335
6	39	19	1608.7978704775
6	40	19.5	1608.2024692262
6	41	20	1607.5996517522
6	42	20.5	1606.9399328879
6	43	21	1606.2808350986
6	44	21.5	1605.6199371605
6	45	22	1604.9601680936
6	46	22.5	1604.3006430242
6	47	23	1603.6409381006
6	48	23.5	1602.9812482408
6	49	24	1602.3200556216
6	50	24.5	1601.6594453757
6	51	25	1600.9992167008
6	52	25.5	1600.3514186537
6	53	26	1599.7119629709
6	54	26.5	1599.074586045
6	55	27	1598.4685066192
6	56	27.5	1598.2871992715
6	57	28	1600.1327301846
6	58	28.5	1604.5245775143
6	59	29	1608.8714928426
6	60	29.5	1613.2086702916
6	61	30	1617.5543518139
6	62	30.5	1621.8981999634
6	63	31	1626.2505997774
6	64	31.5	1630.5994169144
6	65	32	1634.9475009422
6	66	32.5	1639.3068751593
6	67	33	1643.6594599589
6	146	33.5	1648.0111841358
6	147	34	1652.3707087236
6	148	34.5	1656.7378211758
6	149	35	1661.1153184619
6	150	35.5	1665.4786211952
6	151	36	1669.8497660584
6	152	36.5	1674.2195324327
6	153	37	1678.5747012508
6	233	37.5	1682.9394769202
6	313	38	1687.2844451248
6	393	38.5	1691.6535222295
6	473	39	1696.007967332
6	474	39.5	1700.3603826565
6	475	40	1704.7219716228
6	552	40.5	1709.0685501357
6	553	41	1713.421631285
6	554	41.5	1717.772810848
6	555	42	1722.1196195115
6	632	42.5	1726.4788973695
6	870	43	1730.8314410215
6	871	43.5	1735.1881622528
6	1109	44	1739.5504760824
6	1267	44.5	1743.9007958359
6	1268	45	1748.2549870936
6	1269	45.5	1752.6101947357
6	1270	46	1756.9728058497
6	1271	46.5	1761.3346374495
6	1354	47	1765.6900989362
6	1526	47.5	1770.0566241341
6	1613	48	1774.41547178
6	1616	48.5	1778.7760363325
6	1619	49	1783.1222143166
6	1620	49.5	1787.4824368078
6	1621	50	1791.8482998944
6	1622	50.5	1796.1887652293
6	1623	51	1800.5258676313
6	1626	51.5	1804.8860753857
6	1627	52	1809.2343602234
6	1628	52.5	1813.5937689443
6	1629	53	1817.9450976856
6	1630	53.5	1822.3073966277
6	1631	54	1826.6539629906
6	1632	54.5	1830.9981052334
6	1633	55	1835.3537803019
6	1634	55.5	1839.7118837045
6	1635	56	1844.065977226
6	1636	56.5	1848.4172813307
6	1637	57	1852.7685238142
6	1638	57.5	1857.1245474649
6	1639	58	1861.4775959136
6	1640	58.5	1865.8314805964
6	1641	59	1870.1833637168
6	1642	59.5	1874.4006811352
6	1643	60	1877.8581749013
6	1644	60.5	1881.7474716639
6	1645	61	1886.0634982631
6	1646	61.5	1890.440647183
6	1647	62	1894.7923598661
6	1648	62.5	1899.1637865725
7	2	0.5	360.29248770513
7	3	1	361.13602129091
7	4	1.5	362.5062589664
7	5	2	364.3352372963
7	6	2.5	366.71067855973
7	7	3	369.58261201344
7	8	3.5	372.90590667538
7	9	4	376.75151999667
7	10	4.5	381.10200353526
7	11	5	385.9236433683
7	12	5.5	391.25189150218
7	13	6	397.09307655133
7	14	6.5	403.44417801127
7	15	7	410.23715748917
7	16	7.5	417.44994158298
7	17	8	424.71971334238
7	18	8.5	431.96964991186
7	19	9	439.23027185909
7	20	9.5	446.49580528866
7	21	10	453.75826318469
7	22	10.5	461.01531136036
7	23	11	468.27552554011
7	24	11.5	475.5337386271
7	25	12	482.7941119615
7	26	12.5	490.05108489189
7	27	13	497.30394441355
7	28	13.5	504.57167956606
7	29	14	511.7895232439
7	30	14.5	519.03953384049
7	31	15	526.30160379037
7	32	15.5	533.55485807359
7	33	16	540.80658783298
7	34	16.5	548.05869393703
7	35	17	555.30670423526
7	36	17.5	562.57278118469
7	37	18	569.83576083463
7	38	18.5	577.08640474733
7	39	19	584.34775517788
7	40	19.5	591.61120824516
7	41	20	598.88374377042
7	42	20.5	606.13970067352
7	43	21	613.38882664684
7	44	21.5	620.65775166359
7	45	22	627.91426072363
7	46	22.5	635.16808616463
7	47	23	642.42388973851
7	48	23.5	649.67952763475
7	49	24	656.95169372018
7	50	24.5	664.21745453775
7	51	25	671.47901862208
7	52	25.5	678.73389636446
7	53	26	685.99258249253
7	54	26.5	693.2482074732
7	55	27	700.15127387363
7	56	27.5	706.0995322438
7	57	28	711.40140250884
7	58	28.5	713.50090264063
7	59	29	713.69153064582
7	60	29.5	713.86569899227
7	61	30	714.04020883795
7	62	30.5	714.21464506071
7	63	31	714.38942469377
7	64	31.5	714.56406045612
7	65	32	714.73866677936
7	66	32.5	714.91372648347
7	67	33	715.08851354383
7	146	33.5	715.26326604467
7	147	34	715.43833178747
7	148	34.5	715.61370223667
7	149	35	715.78948970977
7	150	35.5	715.96470717154
7	151	36	716.1402395498
7	152	36.5	716.31571657304
7	153	37	716.49060740042
7	233	37.5	716.66588401143
7	313	38	716.84036521148
7	393	38.5	717.01581455581
7	473	39	717.19067632034
7	474	39.5	717.36545657553
7	475	40	717.54060521815
7	552	40.5	717.71515108366
7	553	41	717.88995807711
7	554	41.5	718.0646887077
7	555	42	718.23924381565
7	632	42.5	718.41429965012
7	870	43	718.58908505924
7	871	43.5	718.76403822657
7	1109	44	718.93921597674
7	1267	44.5	719.15372188389
7	1268	45	719.36859831586
7	1269	45.5	719.58352490515
7	1270	46	719.79881685134
7	1271	46.5	720.01407032926
7	1354	47	720.22900944576
7	1526	47.5	720.44449454919
7	1613	48	720.65960077103
7	1616	48.5	720.87479172088
7	1619	49	721.08927270304
7	1620	49.5	721.30444677174
7	1621	50	721.51989920065
7	1622	50.5	721.73409826774
7	1623	51	721.94818563107
7	1626	51.5	722.16349143907
7	1627	52	722.37820849568
7	1628	52.5	722.59347484726
7	1629	53	722.80834221188
7	1630	53.5	723.0237512812
7	1631	54	723.23838348035
7	1632	54.5	723.45289597753
7	1633	55	723.66797796264
7	1634	55.5	723.8831798574
7	1635	56	724.09818374552
7	1636	56.5	724.31304989383
7	1637	57	724.52791299857
7	1638	57.5	724.74301219638
7	1639	58	724.95796447899
7	1640	58.5	725.17295805458
7	1641	59	725.38785279449
7	1642	59.5	725.59610271826
7	1643	60	725.76683276799
7	1644	60.5	725.94830236491
7	1645	61	726.10342382826
7	1646	61.5	726.26039742585
7	1647	62	726.34416091442
7	1648	62.5	726.42830386665
8	3	1	0.96315724250003
8	4	1.5	1.4163082134939
8	5	2	1.8730117260368
8	6	2.5	2.3571391038766
8	7	3	2.8579845126981
8	8	3.5	3.226170594006
8	9	4	3.6683751018142
8	10	4.5	4.096395278115
8	11	5	4.5673459860759
8	12	5.5	5.0041966364236
8	13	6	5.4528541425599
8	14	6.5	5.8326756184112
8	15	7	6.3185249040166
8	16	7.5	6.8164614663955
8	17	8	7.2483342648793
8	18	8.5	7.6306189449347
8	19	9	8.0300661469979
8	20	9.5	8.4971491859045
8	21	10	8.9360353771627
8	22	10.5	9.3978944510204
8	23	11	9.8634379853105
8	24	11.5	10.317759716001
8	25	12	10.714327577011
8	26	12.5	11.151482744485
8	27	13	11.636657540172
8	28	13.5	12.128458942918
8	29	14	12.574270750012
8	30	14.5	13.063242460064
8	31	15	13.48613080303
8	32	15.5	13.890868600824
8	33	16	14.428135147968
8	34	16.5	14.888480121305
8	35	17	15.285900480401
8	36	17.5	15.704661329704
8	37	18	16.182874826592
8	38	18.5	16.576163220711
8	39	19	17.04590348
8	40	19.5	17.511949481893
8	41	20	17.948874973443
8	42	20.5	18.398306984392
8	43	21	18.875087373511
8	44	21.5	19.375399535641
8	45	22	19.816389375537
8	46	22.5	20.27372128587
8	47	23	20.748558687948
8	48	23.5	21.214605076791
8	49	24	21.723559591782
8	50	24.5	22.158030788045
8	51	25	22.180865816828
8	52	25.5	22.164680755404
8	53	26	22.164840675383
8	54	26.5	22.218768838248
8	55	27	22.171807797495
8	56	27.5	22.215426433589
8	57	28	22.199853998441
8	58	28.5	22.167198591596
8	59	29	22.16194917758
8	60	29.5	22.206758969524
8	61	30	22.178201122959
8	62	30.5	22.214963697381
8	63	31	22.198859407622
8	64	31.5	22.2038517011
8	65	32	22.186262325868
8	66	32.5	22.202624620232
8	67	33	22.219863656233
8	146	33.5	22.167788052191
8	147	34	22.202800164078
8	148	34.5	22.217187748034
8	149	35	22.195973929828
8	150	35.5	22.211866106712
8	151	36	22.170279956269
8	152	36.5	22.163523615594
8	153	37	22.168545345282
8	233	37.5	22.167798402975
8	313	38	22.186826498653
8	393	38.5	22.193691120511
8	473	39	22.185229519703
8	474	39.5	22.177593529359
8	475	40	22.19146439536
8	552	40.5	22.162687323107
8	553	41	22.197801454882
8	554	41.5	22.217959166225
8	555	42	22.204708646093
8	632	42.5	22.200998968482
8	870	43	22.165243705269
8	871	43.5	22.2156477495
8	1109	44	22.215933352709
8	1267	44.5	22.165281229946
8	1268	45	22.195793533404
8	1269	45.5	22.168840515916
8	1270	46	22.177717501842
8	1271	46.5	22.185965690343
8	1354	47	22.214475051789
8	1526	47.5	22.215324746016
8	1613	48	22.167504116255
8	1616	48.5	22.193515154943
8	1619	49	22.177530833464
8	1620	49.5	22.169618578316
8	1621	50	22.206625824641
8	1622	50.5	21.580384363871
8	1623	51	19.616930420607
8	1626	51.5	17.616930420607
8	1627	52	15.616930420607
8	1628	52.5	13.61776835161
8	1629	53	11.61776835161
8	1630	53.5	9.6177683516095
8	1631	54	7.621709618162
8	1632	54.5	6.1442299241564
8	1633	55	6.7442299241564
8	1634	55.5	7.255018803835
8	1635	56	7.7594606428632
8	1636	56.5	8.2108324556184
8	1637	57	8.7083027334084
8	1638	57.5	9.1773656754932
8	1639	58	9.6408373741704
8	1640	58.5	10.031210490148
8	1641	59	10.484874080326
8	1642	59.5	10.936389134316
8	1643	60	11.464534922367
8	1644	60.5	11.840224058138
8	1645	61	12.359627453148
8	1646	61.5	12.792568083814
8	1647	62	13.280919353938
8	1648	62.5	13.686657109763
9	3	1	2.0116060111359
9	4	1.5	3.0081261322249
9	5	2	3.9596735773885
9	6	2.5	4.9147222280081
9	7	3	5.889326381562
9	8	3.5	6.8788821249406
9	9	4	7.7938837797867
9	10	4.5	8.7023372510245
9	11	5	8.6754488682753
9	12	5.5	8.6928926480847
9	13	6	8.6739304756915
9	14	6.5	8.6486439504597
9	15	7	8.6071240203461
9	16	7.5	8.6096484815405
9	17	8	8.6765494632844
9	18	8.5	8.691906216222
9	19	9	8.6895699835668
9	20	9.5	8.6917188767746
9	21	10	8.6876668885426
9	22	10.5	8.6548053989519
9	23	11	8.6498789012042
9	24	11.5	9.3105579491106
9	25	12	10.306217582808
9	26	12.5	11.226979594259
9	27	13	12.140981362973
9	28	13.5	13.117551298785
9	29	14	13.969481934591
9	30	14.5	13.8435789962
9	31	15	11.61471192603
9	32	15.5	10.5303115453
9	33	16	8.727996280003
9	34	16.5	8.6786673143745
9	35	17	8.6113086891018
9	36	17.5	8.6799250831228
9	37	18	8.7312646191504
9	38	18.5	8.6191957829014
9	39	19	8.6255628256739
9	40	19.5	8.640095662757
9	41	20	8.7224545112398
9	42	20.5	8.7102991879225
9	43	21	8.6680538501061
9	44	21.5	8.687159623318
9	45	22	8.6143776310661
9	46	22.5	8.701649005111
9	47	23	8.694289473822
9	48	23.5	8.6238870165713
9	49	24	8.6729226478452
9	50	24.5	8.6525806385588
9	51	25	8.6307179475512
9	52	25.5	8.6969431934116
9	53	26	8.6335482753773
9	54	26.5	6.8635875598246
9	55	27	7.4535875598246
9	56	27.5	8.6192236613829
9	57	28	9.7195325001443
9	58	28.5	10.723088909916
9	59	29	11.642868467171
9	60	29.5	12.546221441766
9	61	30	13.645800116907
9	62	30.5	14.559675122629
9	63	31	14.495002092735
9	64	31.5	14.541947132022
9	65	32	14.435276740821
9	66	32.5	14.540433851882
9	67	33	14.548035021111
9	146	33.5	14.47648254187
9	147	34	14.488430435123
9	148	34.5	14.498726023423
9	149	35	14.506795355849
9	150	35.5	14.456248789478
9	151	36	14.534164740203
9	152	36.5	14.453060064965
9	153	37	14.550677891778
9	233	37.5	14.437574530322
9	313	38	14.500435655181
9	393	38.5	14.486342127523
9	473	39	14.5276124709
9	474	39.5	14.533853154012
9	475	40	14.481712085273
9	552	40.5	14.444666899104
9	553	41	14.477096496198
9	554	41.5	14.433516102244
9	555	42	14.500294024718
9	632	42.5	14.460819787759
9	870	43	12.996012484405
9	871	43.5	10.757507540396
9	1109	44	8.5075075403963
9	1267	44.5	6.2575075403963
9	1268	45	7.5575075403963
9	1269	45.5	8.5096150686278
9	1270	46	9.460639632406
9	1271	46.5	10.345157276952
9	1354	47	11.201046515362
9	1526	47.5	12.154825661761
9	1613	48	13.017918653771
9	1616	48.5	14.03233964305
9	1619	49	14.501747551862
9	1620	49.5	14.491342554851
9	1621	50	14.506633412178
9	1622	50.5	14.548575382772
9	1623	51	14.54822373191
9	1626	51.5	14.527033428179
9	1627	52	14.512090891599
9	1628	52.5	14.554619557992
9	1629	53	14.447408475936
9	1630	53.5	14.53172453887
9	1631	54	14.480762663406
9	1632	54.5	14.438121919028
9	1633	55	14.558232903694
9	1634	55.5	14.542846894631
9	1635	56	14.554609659483
9	1636	56.5	14.477540882199
9	1637	57	14.552038549333
9	1638	57.5	14.437921243931
9	1639	58	14.543844697994
9	1640	58.5	14.561337858656
9	1641	59	14.44387854241
9	1642	59.5	14.43810947138
9	1643	60	14.526182060141
9	1644	60.5	14.466360179844
9	1645	61	14.437450976564
9	1646	61.5	14.505227556291
9	1647	62	14.526362177435
9	1648	62.5	14.55133236068
10	3	1	2.1311671961367
10	4	1.5	3.1435446060073
10	5	2	4.0758362758249
10	6	2.5	4.9786327199658
10	7	3	5.9862471878199
10	8	3.5	6.8543556765883
10	9	4	7.8430037378912
10	10	4.5	8.8951558063409
10	11	5	9.8639746389535
10	12	5.5	10.884495384309
10	13	6	11.750328246459
10	14	6.5	12.627083729126
10	15	7	13.680306829451
10	16	7.5	14.66311544073
10	17	8	15.631815495721
10	18	8.5	15.944889718909
10	19	9	15.933076143798
10	20	9.5	16.02704194391
10	21	10	16.012680860139
10	22	10.5	16.046975723119
10	23	11	15.991224413538
10	24	11.5	15.957330957596
10	25	12	16.006943297596
10	26	12.5	16.009157720807
10	27	13	15.938132288733
10	28	13.5	15.992241283309
10	29	14	16.031916167154
10	30	14.5	15.994183716753
10	31	15	16.050449797989
10	32	15.5	15.941528713664
10	33	16	16.035602408029
10	34	16.5	15.973466740693
10	35	17	16.029840288526
10	36	17.5	15.964652343749
10	37	18	16.008472060718
10	38	18.5	15.930056551905
10	39	19	16.034577265534
10	40	19.5	15.948862201169
10	41	20	15.927917716687
10	42	20.5	16.009976792937
10	43	21	15.924553301391
10	44	21.5	15.971704688843
10	45	22	15.946442086124
10	46	22.5	16.03932738042
10	47	23	15.927726235763
10	48	23.5	15.9891791369
10	49	24	15.975600421213
10	50	24.5	16.029597706406
10	51	25	15.938564928819
10	52	25.5	16.017461132803
10	53	26	15.986677580064
10	54	26.5	15.991367802329
10	55	27	15.941091452837
10	56	27.5	15.935278603801
10	57	28	15.940887910151
10	58	28.5	16.015791453997
10	59	29	16.044431088586
10	60	29.5	15.951873005662
10	61	30	16.049907877285
10	62	30.5	15.949109528975
10	63	31	15.976399861407
10	64	31.5	16.039754499081
10	65	32	15.938170450274
10	66	32.5	16.040572454352
10	67	33	15.990110049562
10	146	33.5	16.007202510792
10	147	34	16.044637274847
10	148	34.5	15.966868247155
10	149	35	15.996379570738
10	150	35.5	15.960602580668
10	151	36	15.972599685637
10	152	36.5	15.933823426839
10	153	37	15.944410204946
10	233	37.5	15.951852494351
10	313	38	16.025625474553
10	393	38.5	16.007644835604
10	473	39	15.980006347718
10	474	39.5	16.047505428088
10	475	40	16.038682358186
10	552	40.5	16.017372143357
10	553	41	15.98595333556
10	554	41.5	15.999757634413
10	555	42	15.967693241095
10	632	42.5	16.016159347687
10	870	43	15.95098133998
10	871	43.5	15.98331078985
10	1109	44	15.949522169975
10	1267	44.5	15.938722888315
10	1268	45	15.994377072174
10	1269	45.5	15.960719714193
10	1270	46	16.036747667473
10	1271	46.5	16.003411920378
10	1354	47	15.926190744492
10	1526	47.5	16.028492913561
10	1613	48	15.954295847065
10	1616	48.5	15.930087008821
10	1619	49	16.050765266624
10	1620	49.5	15.946540788627
10	1621	50	16.047154875864
10	1622	50.5	16.044851440415
10	1623	51	15.954742200878
10	1626	51.5	15.988267603103
10	1627	52	15.933767139437
10	1628	52.5	16.010416099606
10	1629	53	16.041816550598
10	1630	53.5	15.990570030597
10	1631	54	16.027989416488
10	1632	54.5	15.979148138783
10	1633	55	15.950659864785
10	1634	55.5	15.991674751526
10	1635	56	15.997690081024
10	1636	56.5	15.981501906892
10	1637	57	16.04799563116
10	1638	57.5	15.963222563442
10	1639	58	16.038185222203
10	1640	58.5	15.936626598835
10	1641	59	15.984057411778
10	1642	59.5	16.003633745774
10	1643	60	15.963876459068
10	1644	60.5	16.045317722033
10	1645	61	16.015014840826
10	1646	61.5	15.959403668982
10	1647	62	16.044345152635
10	1648	62.5	15.946472504267
11	3	1	2.1601955810489
11	4	1.5	3.1144628968242
11	5	2	4.1105820955232
11	6	2.5	5.2289444127435
11	7	3	6.0858094900696
11	8	3.5	7.0473769874488
11	9	4	8.1433097840416
11	10	4.5	9.173221089911
11	11	5	10.05867896536
11	12	5.5	11.148680243594
11	13	6	12.171584089579
11	14	6.5	13.106705217048
11	15	7	13.99409036707
11	16	7.5	14.543085340356
11	17	8	14.602687780525
11	18	8.5	14.517289030695
11	19	9	14.570008487972
11	20	9.5	14.575677133071
11	21	10	14.560443590894
11	22	10.5	14.61913622578
11	23	11	14.54825024424
11	24	11.5	14.519225431246
11	25	12	14.543037858788
11	26	12.5	14.612220510697
11	27	13	14.538531441971
11	28	13.5	14.588886783152
11	29	14	14.586384882714
11	30	14.5	14.525227403968
11	31	15	14.635057979818
11	32	15.5	14.556876347599
11	33	16	14.55173467303
11	34	16.5	14.521861440282
11	35	17	14.524333486348
11	36	17.5	14.61959528806
11	37	18	14.517940223239
11	38	18.5	14.534069228821
11	39	19	14.557720358247
11	40	19.5	14.618730225999
11	41	20	14.640260186026
11	42	20.5	14.559702563066
11	43	21	14.570991012117
11	44	21.5	14.576682747238
11	45	22	14.547124937753
11	46	22.5	14.542483149316
11	47	23	14.608776330758
11	48	23.5	14.563148345725
11	49	24	14.584590232608
11	50	24.5	14.596463933828
11	51	25	14.632218628198
11	52	25.5	14.640536238936
11	53	26	14.56424671979
11	54	26.5	14.59985831915
11	55	27	12.99679047554
11	56	27.5	11.634470266352
11	57	28	11.410184876751
11	58	28.5	9.1768068300144
11	59	29	8.6692932682091
11	60	29.5	8.6545815453751
11	61	30	8.7020650549073
11	62	30.5	8.6871573199102
11	63	31	8.6874157221059
11	64	31.5	8.6518976251481
11	65	32	8.7110292333926
11	66	32.5	8.774150936534
11	67	33	8.7104188366423
11	146	33.5	8.6722553810503
11	147	34	8.7317063623786
11	148	34.5	8.6881515744424
11	149	35	8.7715638518802
11	150	35.5	8.7794007455933
11	151	36	8.7632931033967
11	152	36.5	8.7074452181233
11	153	37	8.693996891219
11	233	37.5	8.7769655293066
11	313	38	8.6914618702515
11	393	38.5	8.7105710856596
11	473	39	8.6624263996587
11	474	39.5	8.6731065072774
11	475	40	8.6904158540469
11	552	40.5	8.6650666580468
11	553	41	8.6606381080093
11	554	41.5	8.6934913809624
11	555	42	8.6606514358803
11	632	42.5	8.7544216800577
11	870	43	8.7445978709499
11	871	43.5	8.7012716774506
11	1109	44	8.7185145582704
11	1267	44.5	8.667836338247
11	1268	45	8.6909460607383
11	1269	45.5	8.7075279357404
11	1270	46	8.7485729695743
11	1271	46.5	8.7242872684801
11	1354	47	8.7322103780022
11	1526	47.5	8.7531157424467
11	1613	48	8.7799054334385
11	1616	48.5	8.7732399426869
11	1619	49	8.6577463098129
11	1620	49.5	8.7618389691369
11	1621	50	8.7209031851383
11	1622	50.5	8.6769899024165
11	1623	51	8.6641497856428
11	1626	51.5	8.6936713287866
11	1627	52	8.6623799932099
11	1628	52.5	8.7401000922525
11	1629	53	8.7784088976987
11	1630	53.5	8.7419353317845
11	1631	54	8.7384252621073
11	1632	54.5	8.6676370343196
11	1633	55	8.7160342569442
11	1634	55.5	8.715332665907
11	1635	56	8.780635785356
11	1636	56.5	8.6968886990406
11	1637	57	8.6968477597766
11	1638	57.5	8.6854054624381
11	1639	58	8.779265278145
11	1640	58.5	8.7618051253239
11	1641	59	8.6807704321763
11	1642	59.5	7.8473887787453
11	1643	60	7.0173887787453
11	1644	60.5	8.2610976064714
11	1645	61	8.744770626738
11	1646	61.5	8.7614393422499
11	1647	62	8.7142987736038
11	1648	62.5	8.7401116884619
12	4	1.5	0.90630194198784
12	5	2	0.91340702508576
12	6	2.5	0.96825475567952
12	7	3	1.001690817643
12	8	3.5	0.73637216261588
12	9	4	0.8844090156164
12	10	4.5	0.85604035260156
12	11	5	0.94190141592175
12	12	5.5	0.87370130069554
12	13	6	0.89731501227245
12	14	6.5	0.7596429517027
12	15	7	0.97169857121073
12	16	7.5	0.99587312475778
12	17	8	0.86374559696764
12	18	8.5	0.76456936011091
12	19	9	0.79889440412633
12	20	9.5	0.93416607781313
12	21	10	0.87777238251641
12	22	10.5	0.92371814771554
12	23	11	0.93108706858008
12	24	11.5	0.90864346138201
12	25	12	0.79313572201877
12	26	12.5	0.87431033494881
12	27	13	0.97034959137439
12	28	13.5	0.98360280549153
12	29	14	0.89162361418827
12	30	14.5	0.97794342010281
12	31	15	0.84577668593264
12	32	15.5	0.80947559558786
12	33	16	1.0745330942888
12	34	16.5	0.9206899466738
12	35	17	0.79484071819111
12	36	17.5	0.83752169860526
12	37	18	0.95642699377611
12	38	18.5	0.78657678823919
12	39	19	0.93948051857763
12	40	19.5	0.93209200378508
12	41	20	0.87385098310188
12	42	20.5	0.89886402189732
12	43	21	0.95356077823789
12	44	21.5	1.0006243242603
12	45	22	0.88197967979127
12	46	22.5	0.91466382066721
12	47	23	0.94967480415479
12	48	23.5	0.93209277768621
12	49	24	1.017909029983
12	50	24.5	0.86894239252434
12	51	25	0.045670057566518
12	52	25.5	-0.032370122848079
12	53	26	0.00031983995810236
12	54	26.5	0.10785632573068
12	55	27	-0.093922081505873
12	56	27.5	0.087237272188062
12	57	28	-0.031144870296117
12	58	28.5	-0.065310813691468
12	59	29	-0.010498828031125
12	60	29.5	0.089619583887981
12	61	30	-0.057115693129596
12	62	30.5	0.073525148844347
12	63	31	-0.032208579517906
12	64	31.5	0.00998458695598
12	65	32	-0.035178750464688
12	66	32.5	0.032724588727575
12	67	33	0.034478072002528
12	146	33.5	-0.10415120808408
12	147	34	0.070024223774674
12	148	34.5	0.028775167912244
12	149	35	-0.042427636412903
12	150	35.5	0.031784353768451
12	151	36	-0.083172300886361
12	152	36.5	-0.013512681350115
12	153	37	0.01004345937632
12	233	37.5	-0.0014938846137369
12	313	38	0.03805619135499
12	393	38.5	0.013729243716227
12	473	39	-0.016923201614993
12	474	39.5	-0.01527198068797
12	475	40	0.027741732001303
12	552	40.5	-0.05755414450541
12	553	41	0.070228263549502
12	554	41.5	0.040315422685815
12	555	42	-0.026501040263099
12	632	42.5	-0.0074193552229573
12	870	43	-0.071510526426131
12	871	43.5	0.1008080884628
12	1109	44	0.00057120641693587
12	1267	44.5	-0.10130424552597
12	1268	45	0.061024606917051
12	1269	45.5	-0.053906034976244
12	1270	46	0.017753971852365
12	1271	46.5	0.016496377000585
12	1354	47	0.057018722891804
12	1526	47.5	0.0016993884555987
12	1613	48	-0.095641259523106
12	1616	48.5	0.052022077376023
12	1619	49	-0.031968642957509
12	1620	49.5	-0.01582451029681
12	1621	50	0.074014492649589
12	1622	50.5	-1.2524829215399
12	1623	51	-3.9269078865272
12	1626	51.5	-4
12	1627	52	-4
12	1628	52.5	-3.9983241379949
12	1629	53	-4
12	1630	53.5	-4
12	1631	54	-3.9921174668951
12	1632	54.5	-2.9549593880111
12	1633	55	1.2
12	1634	55.5	1.0215777593572
12	1635	56	1.0088836780563
12	1636	56.5	0.90274362551048
12	1637	57	0.99494055557995
12	1638	57.5	0.9381258841697
12	1639	58	0.92694339735433
12	1640	58.5	0.78074623195454
12	1641	59	0.90732718035578
12	1642	59.5	0.90303010798059
12	1643	60	1.0562915761024
12	1644	60.5	0.75137827154249
12	1645	61	1.0388067900203
12	1646	61.5	0.86588126133195
12	1647	62	0.97670254024677
12	1648	62.5	0.81147551164962
13	4	1.5	1.4879334530051
13	5	2	1.6132692118776
13	6	2.5	1.774955217919
13	7	3	1.9399645462544
13	8	3.5	1.8412670129931
13	9	4	2.0734096271212
13	10	4.5	2.1590699722102
13	11	5	2.3759099330688
13	12	5.5	2.4166726257484
13	13	6	2.5672189760482
13	14	6.5	2.4775098225192
13	15	7	2.917777159353
13	16	7.5	3.1040721566467
13	17	8	3.0036717065378
13	18	8.5	2.9251724004981
13	19	9	3.0912608129898
13	20	9.5	3.4895749885006
13	21	10	3.4973498690651
13	22	10.5	3.7321536620711
13	23	11	3.8877343570021
13	24	11.5	3.9686114283298
13	25	12	3.7884802178906
13	26	12.5	4.125769287589
13	27	13	4.5381993626689
13	28	13.5	4.7349194209254
13	29	14	4.6022211168677
13	30	14.5	5.0249056725594
13	31	15	4.7360653077296
13	32	15.5	4.7375822630564
13	33	16	5.8198207003021
13	34	16.5	5.436646094345
13	35	17	5.1054553725593
13	36	17.5	5.3952794666825
13	37	18	6.0123039844926
13	38	18.5	5.4726451858172
13	39	19	6.2492831936675
13	40	19.5	6.3846666731497
13	41	20	6.2900284828632
13	42	20.5	6.5584059619124
13	43	21	6.979394747501
13	44	21.5	7.3889868488056
13	45	22	6.9969201746262
13	46	22.5	7.3268128966839
13	47	23	7.6848236919857
13	48	23.5	7.7809399716037
13	49	24	8.4341171123639
13	50	24.5	7.8241302729532
13	51	25	3.4322488973582
13	52	25.5	3.0122184874303
13	53	26	3.186867571593
13	54	26.5	3.7726616397231
13	55	27	2.6845802681854
13	56	27.5	3.6615635820428
13	57	28	3.024992586619
13	58	28.5	2.8366842640672
13	59	29	3.1285514041701
13	60	29.5	3.6725279413924
13	61	30	2.8823434043574
13	62	30.5	3.5880561904034
13	63	31	3.0191254708464
13	64	31.5	3.2457905438584
13	65	32	3.0010149873039
13	66	32.5	3.3672386895244
13	67	33	3.3799531015792
13	146	33.5	2.6292813398718
13	147	34	3.5668582032497
13	148	34.5	3.348900384219
13	149	35	2.9639505719801
13	150	35.5	3.3639873125314
13	151	36	2.7417694941054
13	152	36.5	3.1127394693344
13	153	37	3.2395006499856
13	233	37.5	3.1777235201955
13	313	38	3.3927034619221
13	393	38.5	3.2639172978825
13	473	39	3.0984388906559
13	474	39.5	3.1058859110401
13	475	40	3.3384393712484
13	552	40.5	2.8773534054774
13	553	41	3.5669414912943
13	554	41.5	3.4108410964988
13	555	42	3.0507042290268
13	632	42.5	3.1521375792444
13	870	43	2.803236763137
13	871	43.5	3.7342669400939
13	1109	44	3.1976544508641
13	1267	44.5	2.6440899706511
13	1268	45	3.5173044007663
13	1269	45.5	2.8978934453624
13	1270	46	3.282426432984
13	1271	46.5	3.2772602153036
13	1354	47	3.4995868672501
13	1526	47.5	3.203581931079
13	1613	48	2.6746993826238
13	1616	48.5	3.4686986796227
13	1619	49	3.0166345024951
13	1620	49.5	3.1014917908717
13	1621	50	3.588985168624
13	1622	50.5	0.973
13	1623	51	0.973
13	1626	51.5	0.973
13	1627	52	0.973
13	1628	52.5	0.973
13	1629	53	0.973
13	1630	53.5	0.973
13	1631	54	0.973
13	1632	54.5	0.973
13	1633	55	3.4141109847635
13	1634	55.5	3.2814462077323
13	1635	56	3.4141177357999
13	1636	56.5	3.3435861168832
13	1637	57	3.679177319692
13	1638	57.5	3.6990161743689
13	1639	58	3.8115514250171
13	1640	58.5	3.574623113366
13	1641	59	4.0149528377421
13	1642	59.5	4.1384960828087
13	1643	60	4.7207339469757
13	1644	60.5	3.9785647360438
13	1645	61	4.9749082827248
13	1646	61.5	4.5900284212514
13	1647	62	5.0932048256648
13	1648	62.5	4.6837289706416
14	4	1.5	1.9930402421779
14	5	2	1.9030948903272
14	6	2.5	1.9100973012391
14	7	3	1.9492083071079
14	8	3.5	1.9791114867572
14	9	4	1.8300033096923
14	10	4.5	1.8169069424755
14	11	5	-0.053776765498334
14	12	5.5	0.034887559618802
14	13	6	-0.037924344786443
14	14	6.5	-0.050573050463573
14	15	7	-0.083039860227146
14	16	7.5	0.0050489223888164
14	17	8	0.13380196348764
14	18	8.5	0.030713505875319
14	19	9	-0.0046724653104313
14	20	9.5	0.004297786415556
14	21	10	-0.0081039764639002
14	22	10.5	-0.065722979181448
14	23	11	-0.0098529954953115
14	24	11.5	1.3213580958126
14	25	12	1.9913192673959
14	26	12.5	1.8415240229014
14	27	13	1.8280035374267
14	28	13.5	1.9531398716243
14	29	14	1.7038612716133
14	30	14.5	-0.25180587678362
14	31	15	-4.4577341403393
14	32	15.5	-2.1688007614607
14	33	16	-3.604630530593
14	34	16.5	-0.098657931257041
14	35	17	-0.13471725054551
14	36	17.5	0.13723278804217
14	37	18	0.10267907205504
14	38	18.5	-0.22413767249789
14	39	19	0.012734085544945
14	40	19.5	0.029065674166194
14	41	20	0.16471769696567
14	42	20.5	-0.02431064663455
14	43	21	-0.084490675632843
14	44	21.5	0.038211546423845
14	45	22	-0.14556398450397
14	46	22.5	0.17454274808988
14	47	23	-0.014719062577932
14	48	23.5	-0.1408049145015
14	49	24	0.098071262547748
14	50	24.5	-0.040684018572794
14	51	25	-0.043725382015108
14	52	25.5	0.13245049172081
14	53	26	-0.12678983606864
14	54	26.5	-3.5399214311054
14	55	27	1.18
14	56	27.5	2.3312722031167
14	57	28	2.2006176775228
14	58	28.5	2.0071128195431
14	59	29	1.8395591145102
14	60	29.5	1.8067059491901
14	61	30	2.1991573502822
14	62	30.5	1.8277500114438
14	63	31	-0.12934605978895
14	64	31.5	0.093890078575349
14	65	32	-0.21334078240208
14	66	32.5	0.21031422212254
14	67	33	0.015202338458039
14	146	33.5	-0.14310495848302
14	147	34	0.023895786507055
14	148	34.5	0.020591176599265
14	149	35	0.016138664851898
14	150	35.5	-0.10109313274268
14	151	36	0.15583190144971
14	152	36.5	-0.16220935047604
14	153	37	0.19523565362673
14	233	37.5	-0.22620672291145
14	313	38	0.12572224971839
14	393	38.5	-0.028187055317687
14	473	39	0.082540686754509
14	474	39.5	0.012481366223657
14	475	40	-0.10428213747684
14	552	40.5	-0.07409037233796
14	553	41	0.064859194187449
14	554	41.5	-0.08716078790836
14	555	42	0.13355584494769
14	632	42.5	-0.078948473916387
14	870	43	-2.9296146067086
14	871	43.5	-4.4770098880176
14	1109	44	-4.5
14	1267	44.5	-4.5
14	1268	45	2.6
14	1269	45.5	1.9042150564631
14	1270	46	1.9020491275564
14	1271	46.5	1.769035289092
14	1354	47	1.7117784768203
14	1526	47.5	1.9075582927978
14	1613	48	1.7261859840201
14	1616	48.5	2.0288419785583
14	1619	49	0.93881581762386
14	1620	49.5	-0.020809994023292
14	1621	50	0.03058171465527
14	1622	50.5	0.083883941187526
14	1623	51	-0.00070330172311728
14	1626	51.5	-0.042380607463418
14	1627	52	-0.029885073159821
14	1628	52.5	0.085057332785798
14	1629	53	-0.21442216411233
14	1630	53.5	0.16863212586846
14	1631	54	-0.10192375092767
14	1632	54.5	-0.085281488755719
14	1633	55	0.24022196933161
14	1634	55.5	-0.03077201812528
14	1635	56	0.023525529704056
14	1636	56.5	-0.15413755456917
14	1637	57	0.14899533426855
14	1638	57.5	-0.22823461080436
14	1639	58	0.21184690812603
14	1640	58.5	0.034986321325412
14	1641	59	-0.23491863249335
14	1642	59.5	-0.011538142058996
14	1643	60	0.17614517752081
14	1644	60.5	-0.11964376059361
14	1645	61	-0.057818406559527
14	1646	61.5	0.13555315945298
14	1647	62	0.042269242289475
14	1648	62.5	0.049940366488883
15	4	1.5	2.7024978186224
15	5	2	3.1228378106583
15	6	2.5	3.6204637772488
15	7	3	4.1795362644611
15	8	3.5	4.7528987655501
15	9	4	4.9670552711745
15	10	4.5	5.4012137681428
15	11	5	1.4763863221932
15	12	5.5	1.6631169338868
15	13	6	1.5094392617643
15	14	6.5	1.4815608496612
15	15	7	1.4118609613406
15	16	7.5	1.5947617075035
15	17	8	1.8686843153561
15	18	8.5	1.6542968023021
15	19	9	1.5800130897105
15	20	9.5	1.5989493362405
15	21	10	1.5726989615504
15	22	10.5	1.4503109526041
15	23	11	1.5665168497934
15	24	11.5	4.5986223214663
15	25	12	6.6543354336105
15	26	12.5	6.7649307342819
15	27	13	7.2096996505112
15	28	13.5	8.1258220546014
15	29	14	7.7720176419972
15	30	14.5	1.1827992916936
15	31	15	0.973
15	32	15.5	0.973
15	33	16	0.973
15	34	16.5	1.3826954261668
15	35	17	1.304817640411
15	36	17.5	1.8762032725321
15	37	18	1.8087470297667
15	38	18.5	0.973
15	39	19	1.6118519283161
15	40	19.5	1.6469044146001
15	41	20	1.9383301795746
15	42	20.5	1.540200424566
15	43	21	1.4118099234401
15	44	21.5	1.6696313039536
15	45	22	1.2824106146412
15	46	22.5	1.9566670594839
15	47	23	1.559283384157
15	48	23.5	1.2926225771186
15	49	24	1.7936333750039
15	50	24.5	1.5024057383261
15	51	25	1.4947869259891
15	52	25.5	1.8679195817618
15	53	26	1.3221211084191
15	54	26.5	0.973
15	55	27	3.6274655817342
15	56	27.5	6.4275397243869
15	57	28	6.8184352928874
15	58	28.5	6.9280943490295
15	59	29	6.9791268426376
15	60	29.5	7.3604933744918
15	61	30	9.235236049927
15	62	30.5	8.5108373453007
15	63	31	1.6387323372405
15	64	31.5	2.4246313835492
15	65	32	1.3420402189006
15	66	32.5	2.8324141351834
15	67	33	2.1495345190754
15	146	33.5	1.5893367870315
15	147	34	2.1733140479828
15	148	34.5	2.162922425443
15	149	35	2.1482555025508
15	150	35.5	1.7342523722028
15	151	36	2.6405897277459
15	152	36.5	1.5211123520297
15	153	37	2.7811519725819
15	233	37.5	1.2973991722267
15	313	38	2.5305045661397
15	393	38.5	1.9912477542303
15	473	39	2.3830402828993
15	474	39.5	2.1384367678193
15	475	40	1.7252077799887
15	552	40.5	1.8273066437855
15	553	41	2.314963711928
15	554	41.5	1.780858403242
15	555	42	2.5578602432969
15	632	42.5	1.8118017444336
15	870	43	0.973
15	871	43.5	0.973
15	1109	44	0.973
15	1267	44.5	0.973
15	1268	45	6.2499841014219
15	1269	45.5	5.4826258024982
15	1270	46	5.9813031337595
15	1271	46.5	6.1218573400353
15	1354	47	6.4010247361317
15	1526	47.5	7.4500735643962
15	1613	48	7.3573762340637
15	1616	48.5	8.9032937558199
15	1619	49	5.3723819698842
15	1620	49.5	2.0175096719669
15	1621	50	2.1987319426032
15	1622	50.5	2.3904061552008
15	1623	51	2.0937882691089
15	1626	51.5	1.9456156325652
15	1627	52	1.9878764566695
15	1628	52.5	2.3952904708788
15	1629	53	1.3389377007902
15	1630	53.5	2.6850657868486
15	1631	54	1.7333611107744
15	1632	54.5	1.7877890259482
15	1633	55	2.9401514552214
15	1634	55.5	1.9878289114713
15	1635	56	2.1794565078527
15	1636	56.5	1.5509191215168
15	1637	57	2.6191947681999
15	1638	57.5	1.2903609104698
15	1639	58	2.8383236220378
15	1640	58.5	2.2204335570631
15	1641	59	1.2673979973752
15	1642	59.5	2.0443841596734
15	1643	60	2.7105506948298
15	1644	60.5	1.6704050518451
15	1645	61	1.8832874433442
15	1646	61.5	2.5655267404663
15	1647	62	2.2418975553765
15	1648	62.5	2.2717208981589
16	4	1.5	2.0247548197413
16	5	2	1.8645833396353
16	6	2.5	1.8055928882817
16	7	3	2.0152289357083
16	8	3.5	1.7362169775367
16	9	4	1.9772961226059
16	10	4.5	2.1043041368993
16	11	5	1.9376376652252
16	12	5.5	2.0410414907103
16	13	6	1.7316657243017
16	14	6.5	1.7535109653324
16	15	7	2.1064462006511
16	16	7.5	1.9656172225578
16	17	8	1.9374001099821
16	18	8.5	0.62614844637606
16	19	9	-0.023627150221728
16	20	9.5	0.18793160022236
16	21	10	-0.028722167541275
16	22	10.5	0.068589725960045
16	23	11	-0.1115026191622
16	24	11.5	-0.067786911884323
16	25	12	0.099224680000916
16	26	12.5	0.0044288464216535
16	27	13	-0.14205086414702
16	28	13.5	0.10821798915043
16	29	14	0.079349767691454
16	30	14.5	-0.075464900801887
16	31	15	0.11253216247075
16	32	15.5	-0.21784216864966
16	33	16	0.18814738872926
16	34	16.5	-0.12427133467048
16	35	17	0.11274709566496
16	36	17.5	-0.13037588955369
16	37	18	0.087639433937149
16	38	18.5	-0.15683101762552
16	39	19	0.20904142725747
16	40	19.5	-0.17143012872897
16	41	20	-0.041888968963178
16	42	20.5	0.16411815249827
16	43	21	-0.17084698309191
16	44	21.5	0.094302774905227
16	45	22	-0.050525205438024
16	46	22.5	0.18577058859169
16	47	23	-0.22320228931494
16	48	23.5	0.12290580227506
16	49	24	-0.027157431375237
16	50	24.5	0.10799457038753
16	51	25	-0.1820655551739
16	52	25.5	0.15779240796808
16	53	26	-0.061567105478609
16	54	26.5	0.0093804445303967
16	55	27	-0.10055269898381
16	56	27.5	-0.011625698073765
16	57	28	0.011218612701629
16	58	28.5	0.14980708769057
16	59	29	0.057279269178402
16	60	29.5	-0.18511616584845
16	61	30	0.19606974324677
16	62	30.5	-0.20159669661894
16	63	31	0.054580664862879
16	64	31.5	0.12670927534812
16	65	32	-0.20316809761338
16	66	32.5	0.20480400815606
16	67	33	-0.10092480957974
16	146	33.5	0.034184922459534
16	147	34	0.074869528110142
16	148	34.5	-0.15553805538453
16	149	35	0.059022647165694
16	150	35.5	-0.071553980140017
16	151	36	0.023994209938682
16	152	36.5	-0.077552517596629
16	153	37	0.021173556214197
16	233	37.5	0.014884578809141
16	313	38	0.14754596040584
16	393	38.5	-0.035961277899332
16	473	39	-0.055276975771413
16	474	39.5	0.13499816074036
16	475	40	-0.01764613980427
16	552	40.5	-0.042620429657404
16	553	41	-0.062837615595196
16	554	41.5	0.027608597707001
16	555	42	-0.064128786637447
16	632	42.5	0.096932213185358
16	870	43	-0.130356015414
16	871	43.5	0.064658899740316
16	1109	44	-0.067577239749951
16	1267	44.5	-0.021598563320005
16	1268	45	0.11130836771801
16	1269	45.5	-0.067314715962855
16	1270	46	0.15205590656027
16	1271	46.5	-0.066671494189649
16	1354	47	-0.15444235177245
16	1526	47.5	0.20460433813743
16	1613	48	-0.14839413299225
16	1616	48.5	-0.048417676487006
16	1619	49	0.24135651560501
16	1620	49.5	-0.2084489559941
16	1621	50	0.20122817447409
16	1622	50.5	-0.0046068708971134
16	1623	51	-0.18021847907454
16	1626	51.5	0.067050804449245
16	1627	52	-0.10900092733092
16	1628	52.5	0.15329792033881
16	1629	53	0.062800901983863
16	1630	53.5	-0.10249304000288
16	1631	54	0.074838771782819
16	1632	54.5	-0.097682555411012
16	1633	55	-0.056976547995582
16	1634	55.5	0.082029773481189
16	1635	56	0.012030658996665
16	1636	56.5	-0.032376348264517
16	1637	57	0.13298744853586
16	1638	57.5	-0.16954613543581
16	1639	58	0.14992531752214
16	1640	58.5	-0.20311724673491
16	1641	59	0.094861625884661
16	1642	59.5	0.039152667992749
16	1643	60	-0.079514573412016
16	1644	60.5	0.16288252593018
16	1645	61	-0.060605762414639
16	1646	61.5	-0.11122234368696
16	1647	62	0.16988296730444
16	1648	62.5	-0.19574529673438
17	4	1.5	2.7984568684538
17	5	2	3.1444097541456
17	6	2.5	3.5280106963949
17	7	3	4.3259352163484
17	8	3.5	4.3384594692947
17	9	4	5.2703279254748
17	10	4.5	6.1151855528723
17	11	5	6.2806852194509
17	12	5.5	7.1081769084565
17	13	6	6.7304899914031
17	14	6.5	7.2412740892781
17	15	7	8.9513099409504
17	16	7.5	9.0547083895803
17	17	8	9.5156421158074
17	18	8.5	4.6597810862715
17	19	9	2.1615420551011
17	20	9.5	2.9893392055865
17	21	10	2.1508955436355
17	22	10.5	2.5310910794497
17	23	11	1.8294600174731
17	24	11.5	1.9944571009003
17	25	12	2.6438280591366
17	26	12.5	2.2784031518175
17	27	13	1.7072368803552
17	28	13.5	2.6763856360336
17	29	14	2.5706154503682
17	30	14.5	1.9686439407229
17	31	15	2.7015403788886
17	32	15.5	1.4163403560233
17	33	16	2.9915835300722
17	34	16.5	1.7786689819263
17	35	17	2.6993480398884
17	36	17.5	1.7543976624049
17	37	18	2.599350566667
17	38	18.5	1.6498124028048
17	39	19	3.0721560686166
17	40	19.5	1.5952186805004
17	41	20	2.090859451362
17	42	20.5	2.8946476406373
17	43	21	1.5955773137956
17	44	21.5	2.6198434412076
17	45	22	2.0596801512887
17	46	22.5	2.9830101723249
17	47	23	1.394852632666
17	48	23.5	2.7325389619537
17	49	24	2.1527590572988
17	50	24.5	2.6809528343535
17	51	25	1.5535692012185
17	52	25.5	2.8714179211643
17	53	26	2.0214317352524
17	54	26.5	2.2953468566745
17	55	27	1.8669144647108
17	56	27.5	2.2078811380704
17	57	28	2.2962931261129
17	58	28.5	2.8403333913287
17	59	29	2.4870104636654
17	60	29.5	1.542837195467
17	61	30	3.0245865350905
17	62	30.5	1.4792855239854
17	63	31	2.4675661406151
17	64	31.5	2.7547740711531
17	65	32	1.4724827522418
17	66	32.5	3.0567937273257
17	67	33	1.8701200591093
17	146	33.5	2.3929589674184
17	147	34	2.5550552333022
17	148	34.5	1.6577670743298
17	149	35	2.4873322713943
17	150	35.5	1.9803023516997
17	151	36	2.3493246872899
17	152	36.5	1.9545502412928
17	153	37	2.334973567115
17	233	37.5	2.3117178275866
17	313	38	2.8331294574493
17	393	38.5	2.122402373706
17	473	39	2.0449610131449
17	474	39.5	2.7879944136634
17	475	40	2.1966329459436
17	552	40.5	2.097772949325
17	553	41	2.0164614626763
17	554	41.5	2.3666521460552
17	555	42	2.0095966733201
17	632	42.5	2.636299141716
17	870	43	1.7532793151162
17	871	43.5	2.5073006434106
17	1109	44	1.9944631301035
17	1267	44.5	2.1699719899606
17	1268	45	2.6886080819767
17	1269	45.5	1.9966207232319
17	1270	46	2.8522839398222
17	1271	46.5	2.003490496836
17	1354	47	1.6586684265149
17	1526	47.5	3.0539827821326
17	1613	48	1.6842125463087
17	1616	48.5	2.0660300465662
17	1619	49	3.1999094741599
17	1620	49.5	1.4527713220579
17	1621	50	3.0440766723459
17	1622	50.5	2.2477646378228
17	1623	51	1.5618820369224
17	1626	51.5	2.5171844690338
17	1627	52	1.8337815329028
17	1628	52.5	2.8529674386565
17	1629	53	2.5080088136019
17	1630	53.5	1.864120122887
17	1631	54	2.5526464674396
17	1632	54.5	1.8815674996042
17	1633	55	2.035329911982
17	1634	55.5	2.5753741617831
17	1635	56	2.3063321276099
17	1636	56.5	2.1333218134942
17	1637	57	2.7802924318602
17	1638	57.5	1.6035793444552
17	1639	58	2.8442732773411
17	1640	58.5	1.4725704974098
17	1641	59	2.6237468256945
17	1642	59.5	2.4116640212712
17	1643	60	1.9500082593741
17	1644	60.5	2.8954882430302
17	1645	61	2.0280993395237
17	1646	61.5	1.8276074505686
17	1647	62	2.9224022772228
17	1648	62.5	1.5015880774322
18	4	1.5	1.9085346315506
18	5	2	1.992238397398
18	6	2.5	2.2367246344406
18	7	3	1.7137301546521
18	8	3.5	1.9231349947583
18	9	4	2.1918655931856
18	10	4.5	2.0598226117389
18	11	5	1.7709157508984
18	12	5.5	2.1800025564665
18	13	6	2.0458076919708
18	14	6.5	1.8702422549389
18	15	7	1.7747703000437
18	16	7.5	1.0979899465706
18	17	8	0.11920488033909
18	18	8.5	-0.1707974996604
18	19	9	0.10543891455512
18	20	9.5	0.011337290196682
18	21	10	-0.03046708435286
18	22	10.5	0.11738526977133
18	23	11	-0.14177196308039
18	24	11.5	-0.058049625987184
18	25	12	0.047624855083413
18	26	12.5	0.13836530381814
18	27	13	-0.1473781374516
18	28	13.5	0.10071068236138
18	29	14	-0.0050038008764375
18	30	14.5	-0.12231495749205
18	31	15	0.21966115170159
18	32	15.5	-0.1563632644387
18	33	16	-0.010283349137751
18	34	16.5	-0.059746465496719
18	35	17	0.0049440921330834
18	36	17.5	0.1905236034235
18	37	18	-0.20331012964249
18	38	18.5	0.032258011163211
18	39	19	0.04730225885287
18	40	19.5	0.12201973550487
18	41	20	0.043059920053931
18	42	20.5	-0.16111524592154
18	43	21	0.02257689810358
18	44	21.5	0.011383470240983
18	45	22	-0.059115618970246
18	46	22.5	-0.0092835768731305
18	47	23	0.13258636288345
18	48	23.5	-0.091255970066413
18	49	24	0.042883773767389
18	50	24.5	0.023747402438893
18	51	25	0.071509388741106
18	52	25.5	0.016635221475738
18	53	26	-0.15257903829217
18	54	26.5	0.071223198720254
18	55	27	-3.2061356872211
18	56	27.5	-2.7246404183749
18	57	28	-0.4485707792018
18	58	28.5	-4.4667560934741
18	59	29	-1.0150271236105
18	60	29.5	-0.029423445668073
18	61	30	0.094967019064352
18	62	30.5	-0.029815469994212
18	63	31	0.0005168043915198
18	64	31.5	-0.071036193915642
18	65	32	0.11826321648899
18	66	32.5	0.12624340628274
18	67	33	-0.12746419978328
18	146	33.5	-0.076326911184005
18	147	34	0.11890196265653
18	148	34.5	-0.087109575872308
18	149	35	0.16682455487549
18	150	35.5	0.015673787426202
18	151	36	-0.032215284393168
18	152	36.5	-0.1116957705468
18	153	37	-0.026896653808652
18	233	37.5	0.16593727617525
18	313	38	-0.17100731811021
18	393	38.5	0.038218430816197
18	473	39	-0.096289372001777
18	474	39.5	0.021360215237365
18	475	40	0.034618693538942
18	552	40.5	-0.050698392000051
18	553	41	-0.0088571000751081
18	554	41.5	0.065706545906139
18	555	42	-0.065679890164173
18	632	42.5	0.18754048835486
18	870	43	-0.019647618215533
18	871	43.5	-0.086652386998757
18	1109	44	0.034485761639662
18	1267	44.5	-0.1013564400468
18	1268	45	0.046219444982707
18	1269	45.5	0.033163750004022
18	1270	46	0.082090067667888
18	1271	46.5	-0.04857140218839
18	1354	47	0.015846219044178
18	1526	47.5	0.041810728888958
18	1613	48	0.053579381983727
18	1616	48.5	-0.013330981503241
18	1619	49	-0.23098726574797
18	1620	49.5	0.20818531864788
18	1621	50	-0.081871567997148
18	1622	50.5	-0.087826565443539
18	1623	51	-0.025680233547465
18	1626	51.5	0.059043086287566
18	1627	52	-0.062582671153361
18	1628	52.5	0.15544019808527
18	1629	53	0.076617610892281
18	1630	53.5	-0.072947131828407
18	1631	54	-0.0070201393542817
18	1632	54.5	-0.14157645557541
18	1633	55	0.096794445249252
18	1634	55.5	-0.00140318207443
18	1635	56	0.13060623889789
18	1636	56.5	-0.16749417263083
18	1637	57	-8.1878527996793e-05
18	1638	57.5	-0.022884594677016
18	1639	58	0.18771963141393
18	1640	58.5	-0.034920305642299
18	1641	59	-0.16206938629504
18	1642	59.5	-1.6667633068621
18	1643	60	-1.66
18	1644	60.5	2.4874176554522
18	1645	61	0.9673460405333
18	1646	61.5	0.033337431023831
18	1647	62	-0.094281137292274
18	1648	62.5	0.051625829716212
19	4	1.5	2.6955509797744
19	5	2	3.2883222870959
19	6	2.5	4.1941174165164
19	7	3	3.9378955968766
19	8	3.5	4.7485859616822
19	9	4	5.8543376733074
19	10	4.5	6.1775693704071
19	11	5	5.9821959196403
19	12	5.5	7.6331225865915
19	13	6	7.8648074258527
19	14	6.5	7.8578267025772
19	15	7	8.0237890237147
19	16	7.5	5.9440318831241
19	17	8	2.5215996125295
19	18	8.5	1.4953876673367
19	19	9	2.4688200096947
19	20	9.5	2.1390167677352
19	21	10	1.9906499519467
19	22	10.5	2.5174278850781
19	23	11	1.5991862716072
19	24	11.5	1.8900343297916
19	25	12	2.2626189159963
19	26	12.5	2.5903713434874
19	27	13	1.5788369743138
19	28	13.5	2.4546984039898
19	29	14	2.0827493340562
19	30	14.5	1.6656247718062
19	31	15	2.8803224823279
19	32	15.5	1.548624634225
19	33	16	2.0605661097107
19	34	16.5	1.8843400980098
19	35	17	2.1110087781763
19	36	17.5	2.7751801418524
19	37	18	1.3816743553884
19	38	18.5	2.2077323560374
19	39	19	2.2632253942785
19	40	19.5	2.5337005185544
19	41	20	2.2580551344857
19	42	20.5	1.532146301247
19	43	21	2.1779711921462
19	44	21.5	2.1392894682009
19	45	22	1.8888857655703
19	46	22.5	2.0631041083883
19	47	23	2.5695405861684
19	48	23.5	1.7775676241955
19	49	24	2.2508784945035
19	50	24.5	2.1849575905697
19	51	25	2.3574295489482
19	52	25.5	2.1648516205751
19	53	26	1.5624180619725
19	54	26.5	2.3523879488619
19	55	27	0.973
19	56	27.5	0.973
19	57	28	0.973
19	58	28.5	0.973
19	59	29	0.973
19	60	29.5	1.5260109554556
19	61	30	1.7898273276056
19	62	30.5	1.527209427586
19	63	31	1.590731128338
19	64	31.5	1.4390777730465
19	65	32	1.8395603026555
19	66	32.5	1.8626160976145
19	67	33	1.3236669439713
19	146	33.5	1.4290769606018
19	147	34	1.8429271017079
19	148	34.5	1.4073060928228
19	149	35	1.9481437976293
19	150	35.5	1.6291940131281
19	151	36	1.5268731901682
19	152	36.5	1.3566422974835
19	153	37	1.5337490411455
19	233	37.5	1.946859983186
19	313	38	1.2317298021474
19	393	38.5	1.6714816827934
19	473	39	1.3869044534394
19	474	39.5	1.6333075596172
19	475	40	1.6623616634409
19	552	40.5	1.4822322533088
19	553	41	1.5693123469546
19	554	41.5	1.7277332170932
19	555	42	1.4507117452533
19	632	42.5	1.989969654815
19	870	43	1.5522051452724
19	871	43.5	1.408897177996
19	1109	44	1.6642622812996
19	1267	44.5	1.3765676163839
19	1268	45	1.6867007449541
19	1269	45.5	1.6606355648345
19	1270	46	1.7669667166114
19	1271	46.5	1.4900783135784
19	1354	47	1.6260995398969
19	1526	47.5	1.6824028401035
19	1613	48	1.709437663061
19	1616	48.5	1.567415777912
19	1619	49	0.973
19	1620	49.5	2.034414070192
19	1621	50	1.4198951103372
19	1622	50.5	1.40526944391
19	1623	51	1.5344195678279
19	1626	51.5	1.7137874037942
19	1627	52	1.4572695671468
19	1628	52.5	1.9207128959695
19	1629	53	1.758053777548
19	1630	53.5	1.4397411469436
19	1631	54	1.5783988598202
19	1632	54.5	1.2925431090326
19	1633	55	1.794953176446
19	1634	55.5	1.5886343729635
19	1635	56	1.8724970212945
19	1636	56.5	1.239244998994
19	1637	57	1.5901299941164
19	1638	57.5	1.5416084624372
19	1639	58	1.9931991739297
19	1640	58.5	1.5210693902021
19	1641	59	1.2501298577758
19	1642	59.5	0.973
19	1643	60	0.973
19	1644	60.5	6.5128579542166
19	1645	61	3.6322953126757
19	1646	61.5	1.6651737219493
19	1647	62	1.3935058197342
19	1648	62.5	1.7020429842393
20	7	3	1287.3559671473
20	8	3.5	1287.3811776978
20	9	4	1287.429289688
20	10	4.5	1287.4986014391
20	11	5	1287.5876593265
20	12	5.5	1287.6989236316
20	13	6	1287.8289786264
20	14	6.5	1287.9773356656
20	15	7	1288.1456839783
20	16	7.5	1288.3232427641
20	17	8	1288.50096557
20	18	8.5	1288.6786560022
20	19	9	1288.8562593891
20	20	9.5	1289.0342826184
20	21	10	1289.211768436
20	22	10.5	1289.3894451716
20	23	11	1289.5671715795
20	24	11.5	1289.7453252715
20	25	12	1289.923181164
20	26	12.5	1290.1011073045
20	27	13	1290.2786190732
20	28	13.5	1290.4555619293
20	29	14	1290.7643331495
20	30	14.5	1294.6385489546
20	31	15	1299.583718733
20	32	15.5	1304.0540757567
20	33	16	1307.5000706376
20	34	16.5	1307.8180997712
20	35	17	1305.9971665662
20	36	17.5	1301.3149925426
20	37	18	1296.9520803428
20	38	18.5	1293.3391100906
20	39	19	1292.3512898867
20	40	19.5	1292.5048263583
20	41	20	1292.6580338186
20	42	20.5	1292.8115754686
20	43	21	1292.9645246154
20	44	21.5	1293.1173784909
20	45	22	1293.2710696129
20	46	22.5	1293.4250487536
20	47	23	1293.5782667216
20	48	23.5	1293.7314100085
20	49	24	1293.8850084872
20	50	24.5	1294.0387336586
20	51	25	1294.1922177309
20	52	25.5	1294.345462665
20	53	26	1294.4988617273
20	54	26.5	1294.652153533
20	55	27	1294.8058326959
20	56	27.5	1294.9589505611
20	57	28	1295.1128597823
20	58	28.5	1295.2656915284
20	59	29	1295.4189219684
20	60	29.5	1295.5655449128
20	61	30	1295.6835957059
20	62	30.5	1295.8131581554
20	63	31	1295.9513056867
20	64	31.5	1296.102072429
20	65	32	1296.2526085891
20	66	32.5	1296.4190575763
20	67	33	1296.5998719394
20	146	33.5	1296.7728203677
20	147	34	1296.9195629535
20	148	34.5	1297.0131586035
20	149	35	1297.1063747761
20	150	35.5	1297.1996764358
20	151	36	1297.2929482287
20	152	36.5	1297.2615960287
20	153	37	1296.912794034
20	233	37.5	1296.4530891735
20	313	38	1295.9913606286
20	393	38.5	1295.5496080767
20	473	39	1295.1137640083
20	474	39.5	1294.7363926041
20	475	40	1294.4693949383
20	552	40.5	1294.4078200116
20	553	41	1294.4496299423
20	554	41.5	1294.4914963053
20	555	42	1294.5333800904
20	632	42.5	1294.6068264757
20	870	43	1294.7345850641
20	871	43.5	1294.8622436809
20	1109	44	1294.9903143477
20	1267	44.5	1295.1179390501
20	1268	45	1295.2456372085
20	1269	45.5	1295.3735375352
20	1270	46	1295.5025726542
20	1271	46.5	1296.3451805419
20	1354	47	1296.8912719027
20	1526	47.5	1297.3333663053
20	1613	48	1297.6122811525
20	1616	48.5	1297.8150912551
20	1619	49	1298.0875064697
20	1620	49.5	1298.4502937555
20	1621	50	1298.9902800942
20	1622	50.5	1299.7201861194
20	1623	51	1300.5611340604
20	1626	51.5	1301.4713016478
20	1627	52	1305.7028449755
20	1628	52.5	1306.6650226528
20	1629	53	1307.6965366033
20	1630	53.5	1308.784193715
20	1631	54	1309.8714362084
20	1632	54.5	1310.9572626336
20	1633	55	1312.0431663998
20	1634	55.5	1313.1276485443
20	1635	56	1314.2148381026
20	1636	56.5	1315.2990343985
20	1637	57	1316.3854233229
20	1638	57.5	1317.5084784484
20	1639	58	1318.8068094217
20	1640	58.5	1320.0912901673
20	1641	59	1321.3740748381
20	1642	59.5	1322.5995789169
20	1643	60	1323.7888382812
20	1644	60.5	1324.960646488
20	1645	61	1326.1190127276
20	1646	61.5	1327.2784410135
20	1647	62	1328.4379527405
20	1648	62.5	1329.5986416407
21	7	3	1828.399858525
21	8	3.5	1827.796331021
21	9	4	1826.6445549326
21	10	4.5	1824.9852675684
21	11	5	1822.8532679407
21	12	5.5	1820.1896581929
21	13	6	1817.0762090785
21	14	6.5	1813.5246185185
21	15	7	1809.4944472387
21	16	7.5	1805.2437820146
21	17	8	1800.9891902301
21	18	8.5	1796.7353734598
21	19	9	1792.4836405031
21	20	9.5	1788.2218567403
21	21	10	1783.9729383336
21	22	10.5	1779.7194494521
21	23	11	1775.4647714393
21	24	11.5	1771.1998644648
21	25	12	1766.9420866584
21	26	12.5	1762.6826271536
21	27	13	1758.4330874877
21	28	13.5	1754.1971673016
21	29	14	1749.9731385587
21	30	14.5	1748.606588454
21	31	15	1749.1446187012
21	32	15.5	1747.585689446
21	33	16	1742.7393989861
21	34	16.5	1736.757306505
21	35	17	1730.5985575225
21	36	17.5	1726.3788204398
21	37	18	1722.3970974721
21	38	18.5	1718.3994427938
21	39	19	1714.2207422815
21	40	19.5	1709.9639546061
21	41	20	1705.7162887445
21	42	20.5	1701.4593574964
21	43	21	1697.2188533554
21	44	21.5	1692.980990611
21	45	22	1688.7199152587
21	46	22.5	1684.4508546162
21	47	23	1680.2028974285
21	48	23.5	1675.9570107684
21	49	24	1671.6985039515
21	50	24.5	1667.4364845827
21	51	25	1663.1811496736
21	52	25.5	1658.9324448556
21	53	26	1654.6794668389
21	54	26.5	1650.4294625074
21	55	27	1646.1687187254
21	56	27.5	1641.923536879
21	57	28	1637.6564147472
21	58	28.5	1633.419165534
21	59	29	1629.1708625611
21	60	29.5	1625.1057519317
21	61	30	1621.8328021476
21	62	30.5	1618.1486762622
21	63	31	1613.9351765551
21	64	31.5	1609.3298048237
21	65	32	1604.2309994008
21	66	32.5	1598.5932111274
21	67	33	1592.4688536683
21	146	33.5	1585.8699043905
21	147	34	1578.8409345299
21	148	34.5	1571.7081875233
21	149	35	1564.5919801639
21	150	35.5	1557.4692466408
21	151	36	1550.3487931844
21	152	36.5	1543.2247457411
21	153	37	1536.116936204
21	233	37.5	1529.0130291758
21	313	38	1521.8917543115
21	393	38.5	1514.7889857134
21	473	39	1507.6729931347
21	474	39.5	1500.5500432672
21	475	40	1493.4479053598
21	552	40.5	1486.3359613558
21	553	41	1479.221304819
21	554	41.5	1472.0970453843
21	555	42	1464.9698213004
21	632	42.5	1457.8311675228
21	870	43	1450.7133831885
21	871	43.5	1443.6011685478
21	1109	44	1436.4659974622
21	1267	44.5	1429.3556722896
21	1268	45	1422.241254678
21	1269	45.5	1415.1155737042
21	1270	46	1408.050742927
21	1271	46.5	1401.2061582124
21	1354	47	1395.3417890454
21	1526	47.5	1390.5942230355
21	1613	48	1386.9587949216
21	1616	48.5	1383.3738281084
21	1619	49	1379.1984265652
21	1620	49.5	1374.4763668915
21	1621	50	1369.2802798431
21	1622	50.5	1363.6136252545
21	1623	51	1357.4188335864
21	1626	51.5	1350.7801989466
21	1627	52	1344.2168368688
21	1628	52.5	1337.1633863132
21	1629	53	1330.1294782534
21	1630	53.5	1323.0804801071
21	1631	54	1316.0341690602
21	1632	54.5	1308.9970354112
21	1633	55	1301.9594005225
21	1634	55.5	1294.9309790237
21	1635	56	1287.8850110443
21	1636	56.5	1280.8584421016
21	1637	57	1273.8176629506
21	1638	57.5	1266.7871364271
21	1639	58	1259.7799229827
21	1640	58.5	1252.7981486069
21	1641	59	1245.8255932191
21	1642	59.5	1238.8463727497
21	1643	60	1231.8637918355
21	1644	60.5	1224.8716603387
21	1645	61	1217.8798341146
21	1646	61.5	1210.8815974453
21	1647	62	1203.8828571308
21	1648	62.5	1196.8770114724
22	7	3	243.31684103317
22	8	3.5	243.31083854113
22	9	4	243.30041073961
22	10	4.5	243.28623306868
22	11	5	243.26809797797
22	12	5.5	243.24581887119
22	13	6	243.21943441313
22	14	6.5	243.18912463216
22	15	7	243.15511231392
22	16	7.5	243.11762675876
22	17	8	243.0764103363
22	18	8.5	243.03123234748
22	19	9	242.98150322319
[...]
103	1661	69	-0.24440756136846
103	1662	69.5	0.063528582528164
103	1663	70	0.1155220109422
103	1664	70.5	-0.079896804489575
103	1665	71	-0.059259906251253
103	1666	71.5	-2.1430670098337
103	1667	72	-1.0633972748914
103	1668	72.5	0.75871822809537
103	1669	73	0.65775730088653
103	1670	73.5	-1.9367371843536
103	1671	74	-1.3138657154625
103	1672	74.5	1.3537851075445
103	1673	75	1.4625364416507
103	1746	75.5	-2.7322452320543
103	1747	76	-1.66
103	1748	76.5	2.145789088211
103	1749	77	2.0750404075114
103	1750	77.5	1.8863880129717
103	1751	78	1.9836980501981
103	1752	78.5	1.8926281406358
103	1753	79	1.7764604577748
103	1754	79.5	0.72422337596543
103	1828	80	-2.0591871870297
103	1829	80.5	-1.9094444909259
103	1976	81	-0.27550875491346
103	1977	81.5	-0.41590515180334
103	1978	82	-0.41557261610021
103	2052	82.5	-0.021249113290079
103	2053	83	-0.094047131795417
103	2054	83.5	-0.36043735498422
103	2055	84	0.009615854463334
103	2275	84.5	-0.14463182495885
103	2276	85	-0.20605257188618
103	2350	85.5	0.16897400932665
103	2569	86	-0.24706725259413
103	2570	86.5	-0.024033146644971
103	2571	87	0.14305388001413
103	2572	87.5	0.038422434192057
103	2573	88	-0.033485477245588
103	2647	88.5	-0.21389348371868
103	2648	89	0.13719436629827
103	2723	89.5	0.10072170224902
103	2802	90	-0.10975761343689
103	2803	90.5	-0.0430923103963
103	2804	91	0.092357299656864
103	2805	91.5	-0.12463396197971
103	2806	92	0.1059799778522
103	2807	92.5	0.23451987639859
103	2808	93	-0.20661710207882
103	2809	93.5	-0.041193823596526
103	2810	94	-0.15859361567281
103	2811	94.5	0.26214930242561
103	2812	95	-0.02619881658924
103	2813	95.5	-0.053901497021489
103	2814	96	-0.026982609921674
103	2815	96.5	-0.0066866328875967
103	2816	97	0.044744866793582
103	2817	97.5	-0.092907425168608
103	2818	98	0.17228977936371
103	2819	98.5	-0.092085027592336
103	2820	99	0.22489799610183
103	2821	99.5	-0.27738680695592
103	2822	100	0.13481152743237
103	2823	100.5	-0.1041251153912
103	2824	101	0.077545752871107
103	2825	101.5	0.045815183979951
103	2826	102	-0.12370261372188
103	2827	102.5	0.21750792602854
103	2828	103	-0.070691376521907
103	2829	103.5	-0.29180420338246
103	2830	104	0.32557917333807
103	2831	104.5	-0.22402564465998
103	2832	105	0.1345089620589
103	2833	105.5	-0.17983132116927
103	2834	106	0.22024955328384
103	2835	106.5	-0.048274653667136
103	2836	107	-0.1388857006557
103	2837	107.5	0.056756617230302
103	2838	108	0.01719814408758
103	2839	108.5	-0.051049649906044
103	2840	109	0.152069610387
103	2841	109.5	0.021177177361515
103	2842	110	-0.21320422166946
103	2843	110.5	0.22133130789992
103	2844	111	-0.24796363882519
103	2845	111.5	-0.0089902082302125
103	2846	112	0.067035585482735
103	2847	112.5	0.26090189465086
104	1649	63	1.5162152889117
104	1650	63.5	1.9990303973279
104	1651	64	1.7099655702316
104	1652	64.5	1.5026410390584
104	1653	65	1.5069128395228
104	1654	65.5	1.675015130755
104	1655	66	1.9802293801151
104	1656	66.5	1.596392303373
104	1657	67	1.7868104044043
104	1658	67.5	1.5187782384206
104	1659	68	2.0459076569672
104	1660	68.5	1.8502042768597
104	1661	69	0.973
104	1662	69.5	1.837091360143
104	1663	70	1.9682885885539
104	1664	70.5	1.4927459656882
104	1665	71	1.540699933973
104	1666	71.5	0.973
104	1667	72	0.973
104	1668	72.5	3.1953557269112
104	1669	73	3.0575690026208
104	1670	73.5	0.973
104	1671	74	0.973
104	1672	74.5	4.2067428608466
104	1673	75	4.7276673567585
104	1746	75.5	0.973
104	1747	76	0.973
104	1748	76.5	5.5312512205089
104	1749	77	5.9877655969692
104	1750	77.5	6.085199892379
104	1751	78	6.8640233319345
104	1752	78.5	7.1389585428129
104	1753	79	7.271658466444
104	1754	79.5	4.1857371828414
104	1828	80	0.973
104	1829	80.5	0.973
104	1976	81	0.973
104	1977	81.5	0.973
104	1978	82	0.973
104	2052	82.5	1.6597911202454
104	2053	83	1.4753491097005
104	2054	83.5	0.973
104	2055	84	1.7191630177513
104	2275	84.5	1.3391141198276
104	2276	85	0.973
104	2350	85.5	2.0980390153792
104	2569	86	0.973
104	2570	86.5	1.6209912942479
104	2571	87	2.0281718658009
104	2572	87.5	1.777959055728
104	2573	88	1.6034062167817
104	2647	88.5	0.973
104	2648	89	2.0101622765897
104	2723	89.5	1.927728494713
104	2802	90	1.417657989967
104	2803	90.5	1.5760681978618
104	2804	91	1.9045976924078
104	2805	91.5	1.3802797703218
104	2806	92	1.936390986753
104	2807	92.5	2.2605588065555
104	2808	93	0.973
104	2809	93.5	1.582594047157
104	2810	94	1.2979534454934
104	2811	94.5	2.3176242257934
104	2812	95	1.6212608228538
104	2813	95.5	1.5528396087572
104	2814	96	1.6165699174644
104	2815	96.5	1.6650111169407
104	2816	97	1.7902866699115
104	2817	97.5	1.4569602044616
104	2818	98	2.1015056291122
104	2819	98.5	1.461071798794
104	2820	99	2.2371142411775
104	2821	99.5	0.973
104	2822	100	2.0105374935046
104	2823	100.5	1.431599442575
104	2824	101	1.8711593294867
104	2825	101.5	1.796723080004
104	2826	102	1.3846179383001
104	2827	102.5	2.2172614433565
104	2828	103	1.5161312578845
104	2829	103.5	0.973
104	2830	104	2.4765364730384
104	2831	104.5	0.973
104	2832	105	2.009081914596
104	2833	105.5	1.2485156362945
104	2834	106	2.218351686464
104	2835	106.5	1.5682652982624
104	2836	107	1.3470152360023
104	2837	107.5	1.8176476709002
104	2838	108	1.7234155872066
104	2839	108.5	1.5578983768241
104	2840	109	2.0529985859342
104	2841	109.5	1.7379223067112
104	2842	110	0.973
104	2843	110.5	2.2220722074833
104	2844	111	0.973
104	2845	111.5	1.655874951474
104	2846	112	1.8403654850964
104	2847	112.5	2.3226604645498
105	1649	63	1296.1482561359
105	1650	63.5	1295.8260883277
105	1651	64	1295.5189666707
105	1652	64.5	1295.2118702321
105	1653	65	1294.9047140186
105	1654	65.5	1294.687519746
105	1655	66	1294.4995136168
105	1656	66.5	1294.3906829921
105	1657	67	1294.4200745227
105	1658	67.5	1294.4494588643
105	1659	68	1294.4787464261
105	1660	68.5	1294.5081926014
105	1661	69	1294.5377709059
105	1662	69.5	1294.5821061058
105	1663	70	1294.6716667961
105	1664	70.5	1294.7611129588
105	1665	71	1294.8506243115
105	1666	71.5	1294.9371504008
105	1667	72	1295.0176382036
105	1668	72.5	1295.0970065396
105	1669	73	1295.1783073398
105	1670	73.5	1295.2596899237
105	1671	74	1295.3329707494
105	1672	74.5	1295.406276868
105	1673	75	1295.482989609
105	1746	75.5	1295.9480402364
105	1747	76	1296.3619007093
105	1748	76.5	1296.7101488725
105	1749	77	1297.087050845
105	1750	77.5	1297.4769029988
105	1751	78	1297.6878484411
105	1752	78.5	1297.9147747065
105	1753	79	1298.2088704658
105	1754	79.5	1298.636862334
105	1828	80	1299.2584087419
105	1829	80.5	1300.0433375933
105	1976	81	1300.8921844073
105	1977	81.5	1304.9681423883
105	1978	82	1305.7530316969
105	2052	82.5	1306.5201494553
105	2053	83	1307.2996876444
105	2054	83.5	1308.1372197396
105	2055	84	1308.9647516165
105	2275	84.5	1309.7865586148
105	2276	85	1310.5974728237
105	2350	85.5	1311.3983629103
105	2569	86	1312.1944847399
105	2570	86.5	1312.9848305184
105	2571	87	1313.769634154
105	2572	87.5	1314.5481605864
105	2573	88	1315.3270255625
105	2647	88.5	1316.1015658899
105	2648	89	1316.8737121467
105	2723	89.5	1317.7175202034
105	2802	90	1318.6366386053
105	2803	90.5	1319.5483050505
105	2804	91	1320.4528304443
105	2805	91.5	1321.3584880339
105	2806	92	1322.2356284607
105	2807	92.5	1323.0765525504
105	2808	93	1323.9160991581
105	2809	93.5	1324.7429074704
105	2810	94	1325.5550986537
105	2811	94.5	1326.3695077969
105	2812	95	1327.1839616402
105	2813	95.5	1328.0000666187
105	2814	96	1328.8120372007
105	2815	96.5	1329.6246042431
105	2816	97	1330.4368582631
105	2817	97.5	1330.9708556093
105	2818	98	1331.3827182187
105	2819	98.5	1331.796543066
105	2820	99	1332.283074886
105	2821	99.5	1336.3887758224
105	2822	100	1341.3696331594
105	2823	100.5	1346.3654142149
105	2824	101	1351.3754561632
105	2825	101.5	1356.3638491646
105	2826	102	1361.3501326129
105	2827	102.5	1366.350572439
105	2828	103	1371.3460867809
105	2829	103.5	1376.348887082
105	2830	104	1381.3363629695
105	2831	104.5	1386.3477255238
105	2832	105	1391.3479839353
105	2833	105.5	1396.3468098843
105	2834	106	1401.3259845464
105	2835	106.5	1406.3227108325
105	2836	107	1411.3226484103
105	2837	107.5	1416.3121020227
105	2838	108	1421.3213406752
105	2839	108.5	1426.3005782745
105	2840	109	1431.2997512117
105	2841	109.5	1436.2928559369
105	2842	110	1441.2942934484
105	2843	110.5	1446.2938488078
105	2844	111	1451.2918807877
105	2845	111.5	1456.2982609789
105	2846	112	1461.2895839516
105	2847	112.5	1466.2907292955
106	1649	63	1524.3115657885
106	1650	63.5	1519.3030575039
106	1651	64	1514.2887058342
106	1652	64.5	1509.2747659059
106	1653	65	1504.2598500336
106	1654	65.5	1499.2500252444
106	1655	66	1494.2490622057
106	1656	66.5	1489.2521108547
106	1657	67	1484.2506520543
106	1658	67.5	1479.250416589
106	1659	68	1474.2666498357
106	1660	68.5	1469.2558923401
106	1661	69	1464.2226508567
106	1662	69.5	1459.2084077047
106	1663	70	1454.2187339263
106	1664	70.5	1449.2354408028
106	1665	71	1444.2485157568
106	1666	71.5	1439.4279079875
106	1667	72	1434.9437098708
106	1668	72.5	1430.5218803436
106	1669	73	1425.9923878917
106	1670	73.5	1421.4583390402
106	1671	74	1417.3756615492
106	1672	74.5	1413.2915749177
106	1673	75	1409.0176959299
106	1746	75.5	1404.7162870541
106	1747	76	1401.0266035777
106	1748	76.5	1397.2868341245
106	1749	77	1393.2393569713
106	1750	77.5	1389.0528103355
106	1751	78	1385.6230319683
106	1752	78.5	1381.7658486813
106	1753	79	1377.3945162604
106	1754	79.5	1372.5353361033
106	1828	80	1367.1549660023
106	1829	80.5	1361.2267109584
106	1976	81	1355.0041988185
106	1977	81.5	1349.5756544229
106	1978	82	1343.850781966
106	2052	82.5	1338.2270605788
106	2053	83	1332.7014170988
106	2054	83.5	1327.2734544398
106	2055	84	1321.9103022078
106	2275	84.5	1316.5842523472
106	2276	85	1311.3287975779
106	2350	85.5	1306.1383081526
106	2569	86	1300.978721329
106	2570	86.5	1295.8565685218
106	2571	87	1290.7703337939
106	2572	87.5	1285.7247810001
106	2573	88	1280.6770341359
106	2647	88.5	1275.6573148947
106	2648	89	1270.653111387
106	2723	89.5	1265.6591527285
106	2802	90	1260.6996145062
106	2803	90.5	1255.7495354526
106	2804	91	1250.8330022627
106	2805	91.5	1245.9103150424
106	2806	92	1240.9832602832
106	2807	92.5	1236.0458844043
106	2808	93	1231.1165962303
106	2809	93.5	1226.1859194413
106	2810	94	1221.2835842213
106	2811	94.5	1216.3678615326
106	2812	95	1211.4518690379
106	2813	95.5	1206.5259103943
106	2814	96	1201.6249067103
106	2815	96.5	1196.7203028267
106	2816	97	1191.8175883284
106	2817	97.5	1186.8558546146
106	2818	98	1181.9080117997
106	2819	98.5	1176.936595967
106	2820	99	1171.9965224285
106	2821	99.5	1170.0004672911
106	2822	100	1170.2656855574
106	2823	100.5	1170.5316984747
106	2824	101	1170.7984707495
106	2825	101.5	1170.9257541979
106	2826	102	1170.9528996674
106	2827	102.5	1170.9801222049
106	2828	103	1171.0073179277
106	2829	103.5	1171.0345533155
106	2830	104	1171.0617052764
106	2831	104.5	1171.0889872778
106	2832	105	1171.1162088271
106	2833	105.5	1171.1434225785
106	2834	106	1171.1705293478
106	2835	106.5	1171.1977316691
106	2836	107	1171.2249514721
106	2837	107.5	1171.3061461085
106	2838	108	1171.4000467611
106	2839	108.5	1171.4904724704
106	2840	109	1171.5035524629
106	2841	109.5	1171.5166165773
106	2842	110	1171.5297024949
106	2843	110.5	1171.5366598153
106	2844	111	1171.5209674081
106	2845	111.5	1171.4959158553
106	2846	112	1171.4703294206
106	2847	112.5	1171.444692634
107	1649	63	10.106749217645
107	1650	63.5	10.093507281577
107	1651	64	10.021789462369
107	1652	64.5	10.011963884952
107	1653	65	10.0790737271
107	1654	65.5	10.006335837047
107	1655	66	10.027849982509
107	1656	66.5	9.9510928951917
107	1657	67	10.002285840101
107	1658	67.5	9.996569190997
107	1659	68	9.9467534878162
107	1660	68.5	9.9843568525826
107	1661	69	10.032342327419
107	1662	69.5	10.03402670072
107	1663	70	9.9335234837664
107	1664	70.5	9.9839235881316
107	1665	71	9.9831750790155
107	1666	71.5	9.3029632911396
107	1667	72	8.7899080975049
107	1668	72.5	8.8808722413343
107	1669	73	9.1664234612898
107	1670	73.5	8.7820791852663
107	1671	74	7.9539830105353
107	1672	74.5	8.3742928605557
107	1673	75	8.6485972116879
107	1746	75.5	8.2246143275012
107	1747	76	7.2147674158287
107	1748	76.5	7.7591615558588
107	1749	77	8.3986676653699
107	1750	77.5	7.8132095396323
107	1751	78	6.9832095396323
107	1752	78.5	8.177127049562
107	1753	79	9.1388032441437
107	1754	79.5	10.145057155538
107	1828	80	11.287054184316
107	1829	80.5	12.374350689739
107	1976	81	12.255350599862
107	1977	81.5	11.789235801724
107	1978	82	11.46477208945
107	2052	82.5	11.385737273201
107	2053	83	11.047487349018
107	2054	83.5	10.923521822508
107	2055	84	10.8174667508
107	2275	84.5	10.760394604463
107	2276	85	10.546522672595
107	2350	85.5	10.474177884048
107	2569	86	10.422108705944
107	2570	86.5	10.443045743898
107	2571	87	10.353559090693
107	2572	87.5	10.225468707103
107	2573	88	10.198390391355
107	2647	88.5	10.108179219734
107	2648	89	10.119970417858
107	2723	89.5	10.159027311581
107	2802	90	10.046019764903
107	2803	90.5	10.114681044265
107	2804	91	10.037483188932
107	2805	91.5	10.09046860855
107	2806	92	10.023712954948
107	2807	92.5	10.108189196345
107	2808	93	10.035037302271
107	2809	93.5	10.002060004754
107	2810	94	9.9934748067778
107	2811	94.5	9.9647175470863
107	2812	95	10.069155752257
107	2813	95.5	10.015155559298
107	2814	96	9.9294546608086
107	2815	96.5	10.049010888961
107	2816	97	10.033787667791
107	2817	97.5	10.076412448241
107	2818	98	9.995849755876
107	2819	98.5	10.071047736946
107	2820	99	9.9933558031171
107	2821	99.5	10.011780801906
107	2822	100	9.9760731228354
107	2823	100.5	10.073749978042
107	2824	101	10.028087972022
107	2825	101.5	10.010555807002
107	2826	102	10.093718597156
107	2827	102.5	10.035359375223
107	2828	103	10.077945125246
107	2829	103.5	9.9547941815119
107	2830	104	9.9144038965991
107	2831	104.5	9.9616288795365
107	2832	105	10.066894286189
107	2833	105.5	9.9652002340298
107	2834	106	9.9356078997988
107	2835	106.5	9.9919444103141
107	2836	107	9.9414418120034
107	2837	107.5	9.8996255881628
107	2838	108	10.043150914833
107	2839	108.5	9.95895338897
107	2840	109	10.004029470593
107	2841	109.5	9.943037137603
107	2842	110	9.9707812195755
107	2843	110.5	9.9327839984792
107	2844	111	10.026628428732
107	2845	111.5	10.029594321876
107	2846	112	9.9687743087769
107	2847	112.5	9.9333433193065
108	1649	63	0.20066783475761
108	1650	63.5	-0.026483872135476
108	1651	64	-0.14343563841712
108	1652	64.5	-0.019651154833845
108	1653	65	0.13421968429555
108	1654	65.5	-0.14547578010508
108	1655	66	0.043028290923164
108	1656	66.5	-0.15351417463382
108	1657	67	0.10238588981849
108	1658	67.5	-0.01143329820788
108	1659	68	-0.09963140636161
108	1660	68.5	0.075206729532841
108	1661	69	0.09597094967253
108	1662	69.5	0.0033687466014278
108	1663	70	-0.20100643390634
108	1664	70.5	0.10080020873034
108	1665	71	-0.0014970182322536
108	1666	71.5	-1.3604235757516
108	1667	72	-1.0261103872696
108	1668	72.5	0.18192828765887
108	1669	73	0.57110243991109
108	1670	73.5	-0.768688552047
108	1671	74	-1.6561923494621
108	1672	74.5	0.84061970004082
108	1673	75	0.54860870226438
108	1746	75.5	-0.84796576837347
108	1747	76	-2.0196938233449
108	1748	76.5	1.08878828006
108	1749	77	1.2790122190223
108	1750	77.5	-1.1709162514752
108	1751	78	-1.66
108	1752	78.5	2.3878350198595
108	1753	79	1.9233523891633
108	1754	79.5	2.0125078227883
108	1828	80	2.2839940575557
108	1829	80.5	2.1745930108475
108	1976	81	-0.23800017975426
108	1977	81.5	-0.93222959627761
108	1978	82	-0.64892742454639
108	2052	82.5	-0.15806963249916
108	2053	83	-0.67649984836562
108	2054	83.5	-0.24793105302075
108	2055	84	-0.21211014341533
108	2275	84.5	-0.11414429267407
108	2276	85	-0.42774386373471
108	2350	85.5	-0.14468957709531
108	2569	86	-0.10413835620718
108	2570	86.5	0.041874075908467
108	2571	87	-0.17897330641109
108	2572	87.5	-0.25618076718067
108	2573	88	-0.054156631495932
108	2647	88.5	-0.18042234324143
108	2648	89	0.023582396248333
108	2723	89.5	0.078113787444853
108	2802	90	-0.22601509335525
108	2803	90.5	0.13732255872463
108	2804	91	-0.15439571066559
108	2805	91.5	0.10597083923516
108	2806	92	-0.13351130720406
108	2807	92.5	0.1689524827949
108	2808	93	-0.14630378814809
108	2809	93.5	-0.0659545950347
108	2810	94	-0.017170395952327
108	2811	94.5	-0.057514519383044
108	2812	95	0.20887641034086
108	2813	95.5	-0.10800038591779
108	2814	96	-0.17140179697844
108	2815	96.5	0.23911245630467
108	2816	97	-0.0304464423395
108	2817	97.5	0.085249560899012
108	2818	98	-0.16112538472954
108	2819	98.5	0.15039596213949
108	2820	99	-0.15538386765714
108	2821	99.5	0.036849997578663
108	2822	100	-0.071415358142108
108	2823	100.5	0.19535371041403
108	2824	101	-0.091324012040463
108	2825	101.5	-0.03506433004107
108	2826	102	0.16632558030826
108	2827	102.5	-0.11671844386476
108	2828	103	0.085171500044375
108	2829	103.5	-0.24630188746737
108	2830	104	-0.080780569825588
108	2831	104.5	0.094449965874745
108	2832	105	0.21053081330428
108	2833	105.5	-0.20338810431773
108	2834	106	-0.059184668461857
108	2835	106.5	0.11267302103059
108	2836	107	-0.10100519662144
108	2837	107.5	-0.083632447681286
108	2838	108	0.28705065334108
108	2839	108.5	-0.16839505172662
108	2840	109	0.090152163245492
108	2841	109.5	-0.1219846659794
108	2842	110	0.055488163944837
108	2843	110.5	-0.075994442192471
108	2844	111	0.18768886050469
108	2845	111.5	0.0059317862878672
108	2846	112	-0.12164002619728
108	2847	112.5	-0.070861978940727
109	1649	63	2.1816905425479
109	1650	63.5	1.6274824552716
109	1651	64	1.3400020797727
109	1652	64.5	1.6382720344832
109	1653	65	2.0168294259374
109	1654	65.5	1.3344414589472
109	1655	66	1.7908833201187
109	1656	66.5	1.3129110754176
109	1657	67	1.9317589099784
109	1658	67.5	1.6569735347577
109	1659	68	1.4419092773794
109	1660	68.5	1.8645560923738
109	1661	69	1.9192763346819
109	1662	69.5	1.6955128494628
109	1663	70	1.19853675119
109	1664	70.5	1.9260964946664
109	1665	71	1.6799000058562
109	1666	71.5	0.973
109	1667	72	0.973
109	1668	72.5	1.9924978659558
109	1669	73	2.8849648641207
109	1670	73.5	0.973
109	1671	74	0.973
109	1672	74.5	3.2647705873311
109	1673	75	2.7304398700321
109	1746	75.5	0.973
109	1747	76	0.973
109	1748	76.5	3.5634438416681
109	1749	77	4.1587006652866
109	1750	77.5	0.973
109	1751	78	0.973
109	1752	78.5	6.260651234881
109	1753	79	5.8574547503268
109	1754	79.5	6.6163537583828
109	1828	80	8.0001981951678
109	1829	80.5	8.3670912864513
109	1976	81	1.1682947188744
109	1977	81.5	0.973
109	1978	82	0.973
109	2052	82.5	1.3618611149725
109	2053	83	0.973
109	2054	83.5	0.973
109	2055	84	1.1957977537444
109	2275	84.5	1.4481713864553
109	2276	85	0.973
109	2350	85.5	1.3561908509338
109	2569	86	1.4557730751166
109	2570	86.5	1.8243694380688
109	2571	87	1.265407923591
109	2572	87.5	0.973
109	2573	88	1.5668503326302
109	2647	88.5	1.2535063648933
109	2648	89	1.7514465300554
109	2723	89.5	1.8881760296163
109	2802	90	0.973
109	2803	90.5	2.0282686186152
109	2804	91	1.3141413757333
109	2805	91.5	1.9493732509784
109	2806	92	1.3640562816589
109	2807	92.5	2.104609483793
109	2808	93	1.3336159804831
109	2809	93.5	1.5259520387429
109	2810	94	1.6429297330718
109	2811	94.5	1.5439815526459
109	2812	95	2.1969181926291
109	2813	95.5	1.4252552367692
109	2814	96	1.2692702070617
109	2815	96.5	2.2675934306556
109	2816	97	1.6137244983604
109	2817	97.5	1.8976202547943
109	2818	98	1.2963126833161
109	2819	98.5	2.0552186626308
109	2820	99	1.3100480388077
109	2821	99.5	1.7745871775435
109	2822	100	1.511263926125
109	2823	100.5	2.1646701808088
109	2824	101	1.4662053932275
109	2825	101.5	1.6009867038432
109	2826	102	2.0965228766344
109	2827	102.5	1.4051819444822
109	2828	103	1.8975792214642
109	2829	103.5	0.973
109	2830	104	1.4852830110432
109	2831	104.5	1.9086195253543
109	2832	105	2.2006455126323
109	2833	105.5	0.973
109	2834	106	1.5381829364836
109	2835	106.5	1.9554904458462
109	2836	107	1.4383435700341
109	2837	107.5	1.4776517933127
109	2838	108	2.3828387384383
109	2839	108.5	1.2774996308443
109	2840	109	1.9024392384641
109	2841	109.5	1.3881528838183
109	2842	110	1.8158977129389
109	2843	110.5	1.4977705039282
109	2844	111	2.1403380115174
109	2845	111.5	1.7013670186305
109	2846	112	1.3901727994257
109	2847	112.5	1.5100893230163

