version 3
run Default-0-20230108-12:39:13-40430
attr configname Default
attr datetime 20230108-12:39:13
attr datetimef 20230108-123913
attr experiment Default
attr inifile omnetpp.ini
attr iterationvars ""
attr iterationvarsd ""
attr iterationvarsf ""
attr measurement ""
attr network v5_0
attr processid 40430
attr repetition 0
attr replication #0
attr resultdir results
attr runnumber 0
attr seedset 0
config image-path ../../../inet4.4/images:../../../veins-5.2/images
config cmdenv-express-mode true
config cmdenv-autoflush true
config cmdenv-status-frequency 1s
config **.cmdenv-log-level info
config image-path ../../images
config network v5_0
config debug-on-errors true
config print-undisposed true
config **.scalar-recording true
config **.vector-recording true
config *.playgroundSizeX 3500m
config *.playgroundSizeY 3500m
config *.playgroundSizeZ 50m
config *.annotations.draw true
config *.obstacles.obstacles "xmldoc(\"config.xml\", \"//AnalogueModel[@type='SimpleObstacleShadowing']/obstacles\")"
config *.manager.updateInterval 0.5s
config *.manager.host "\"localhost\""
config *.manager.port 9999
config *.manager.autoShutdown true
config *.manager.launchConfig "xmldoc(\"v5_0_Final.launchd.xml\")"
config *.rsu[0].mobility.x 2000
config *.rsu[0].mobility.y 2000
config *.rsu[0].mobility.z 3
config *.rsu[*].applType "\"RSU\""
config *.rsu[*].appl.headerLength "80 bit"
config *.rsu[*].appl.sendBeacons false
config *.rsu[*].appl.dataOnSch false
config *.rsu[*].appl.beaconInterval 1s
config *.rsu[*].appl.beaconUserPriority 7
config *.rsu[*].appl.dataUserPriority 5
config *.rsu[*].nic.phy80211p.antennaOffsetZ "0 m"
config *.connectionManager.sendDirect true
config *.connectionManager.maxInterfDist 2600m
config *.connectionManager.drawMaxIntfDist false
config *.**.nic.mac1609_4.useServiceChannel false
config *.**.nic.mac1609_4.txPower 20mW
config *.**.nic.mac1609_4.bitrate 6Mbps
config *.**.nic.phy80211p.minPowerLevel -110dBm
config *.**.nic.phy80211p.useNoiseFloor true
config *.**.nic.phy80211p.noiseFloor -98dBm
config *.**.nic.phy80211p.decider "xmldoc(\"config.xml\")"
config *.**.nic.phy80211p.analogueModels "xmldoc(\"config.xml\")"
config *.**.nic.phy80211p.usePropagationDelay true
config *.**.nic.phy80211p.antenna "xmldoc(\"antenna.xml\", \"/root/Antenna[@id='monopole']\")"
config *.node[*].nic.phy80211p.antennaOffsetY "0 m"
config *.node[*].nic.phy80211p.antennaOffsetZ "1.895 m"
config *.node[*].applType "\"VeinsApp\""
config *.node[*].appl.headerLength "80 bit"
config *.node[*].appl.sendBeacons false
config *.node[*].appl.dataOnSch false
config *.node[*].appl.beaconInterval 1s
config *.node[*].veinsmobility.x 0
config *.node[*].veinsmobility.y 0
config *.node[*].veinsmobility.z 0
config *.node[*].veinsmobility.setHostSpeed false
config *.node[*0].veinsmobility.accidentCount 0
config *.node[*0].veinsmobility.accidentStart 73s
config *.node[*0].veinsmobility.accidentDuration 50s

vector 0 v5_0.node[0].veinsmobility posx ETV
vector 1 v5_0.node[0].veinsmobility posy ETV
vector 2 v5_0.node[1].veinsmobility posx ETV
vector 3 v5_0.node[1].veinsmobility posy ETV
vector 4 v5_0.node[2].veinsmobility posx ETV
vector 5 v5_0.node[2].veinsmobility posy ETV
vector 6 v5_0.node[3].veinsmobility posx ETV
vector 7 v5_0.node[3].veinsmobility posy ETV
vector 8 v5_0.node[0].veinsmobility speed ETV
vector 9 v5_0.node[1].veinsmobility speed ETV
vector 10 v5_0.node[2].veinsmobility speed ETV
vector 11 v5_0.node[3].veinsmobility speed ETV
vector 12 v5_0.node[0].veinsmobility acceleration ETV
vector 13 v5_0.node[0].veinsmobility co2emission ETV
vector 14 v5_0.node[1].veinsmobility acceleration ETV
vector 15 v5_0.node[1].veinsmobility co2emission ETV
vector 16 v5_0.node[2].veinsmobility acceleration ETV
vector 17 v5_0.node[2].veinsmobility co2emission ETV
vector 18 v5_0.node[3].veinsmobility acceleration ETV
vector 19 v5_0.node[3].veinsmobility co2emission ETV
vector 20 v5_0.node[4].veinsmobility posx ETV
vector 21 v5_0.node[4].veinsmobility posy ETV
vector 22 v5_0.node[5].veinsmobility posx ETV
vector 23 v5_0.node[5].veinsmobility posy ETV
vector 24 v5_0.node[6].veinsmobility posx ETV
vector 25 v5_0.node[6].veinsmobility posy ETV
vector 26 v5_0.node[4].veinsmobility speed ETV
vector 27 v5_0.node[5].veinsmobility speed ETV
vector 28 v5_0.node[6].veinsmobility speed ETV
vector 29 v5_0.node[7].veinsmobility posx ETV
vector 30 v5_0.node[7].veinsmobility posy ETV
vector 31 v5_0.node[4].veinsmobility acceleration ETV
vector 32 v5_0.node[4].veinsmobility co2emission ETV
vector 33 v5_0.node[5].veinsmobility acceleration ETV
vector 34 v5_0.node[5].veinsmobility co2emission ETV
vector 35 v5_0.node[6].veinsmobility acceleration ETV
vector 36 v5_0.node[6].veinsmobility co2emission ETV
vector 37 v5_0.node[7].veinsmobility speed ETV
vector 38 v5_0.node[7].veinsmobility acceleration ETV
vector 39 v5_0.node[7].veinsmobility co2emission ETV
vector 40 v5_0.node[8].veinsmobility posx ETV
vector 41 v5_0.node[8].veinsmobility posy ETV
vector 42 v5_0.node[9].veinsmobility posx ETV
vector 43 v5_0.node[9].veinsmobility posy ETV
vector 44 v5_0.node[10].veinsmobility posx ETV
vector 45 v5_0.node[10].veinsmobility posy ETV
vector 46 v5_0.node[8].veinsmobility speed ETV
vector 47 v5_0.node[9].veinsmobility speed ETV
vector 48 v5_0.node[10].veinsmobility speed ETV
vector 49 v5_0.node[8].veinsmobility acceleration ETV
vector 50 v5_0.node[8].veinsmobility co2emission ETV
vector 51 v5_0.node[9].veinsmobility acceleration ETV
vector 52 v5_0.node[9].veinsmobility co2emission ETV
vector 53 v5_0.node[10].veinsmobility acceleration ETV
vector 54 v5_0.node[10].veinsmobility co2emission ETV
vector 55 v5_0.node[11].veinsmobility posx ETV
vector 56 v5_0.node[11].veinsmobility posy ETV
vector 57 v5_0.node[11].veinsmobility speed ETV
vector 58 v5_0.node[12].veinsmobility posx ETV
vector 59 v5_0.node[12].veinsmobility posy ETV
vector 60 v5_0.node[11].veinsmobility acceleration ETV
vector 61 v5_0.node[11].veinsmobility co2emission ETV
vector 62 v5_0.node[13].veinsmobility posx ETV
vector 63 v5_0.node[13].veinsmobility posy ETV
vector 64 v5_0.node[12].veinsmobility speed ETV
vector 65 v5_0.node[12].veinsmobility acceleration ETV
vector 66 v5_0.node[12].veinsmobility co2emission ETV
vector 67 v5_0.node[13].veinsmobility speed ETV
vector 68 v5_0.node[14].veinsmobility posx ETV
vector 69 v5_0.node[14].veinsmobility posy ETV
vector 70 v5_0.node[13].veinsmobility acceleration ETV
vector 71 v5_0.node[13].veinsmobility co2emission ETV
vector 72 v5_0.node[14].veinsmobility speed ETV
vector 73 v5_0.node[14].veinsmobility acceleration ETV
vector 74 v5_0.node[14].veinsmobility co2emission ETV
vector 75 v5_0.node[15].veinsmobility posx ETV
vector 76 v5_0.node[15].veinsmobility posy ETV
vector 77 v5_0.node[16].veinsmobility posx ETV
vector 78 v5_0.node[16].veinsmobility posy ETV
vector 79 v5_0.node[15].veinsmobility speed ETV
vector 80 v5_0.node[16].veinsmobility speed ETV
vector 81 v5_0.node[17].veinsmobility posx ETV
vector 82 v5_0.node[17].veinsmobility posy ETV
vector 83 v5_0.node[15].veinsmobility acceleration ETV
vector 84 v5_0.node[15].veinsmobility co2emission ETV
vector 85 v5_0.node[16].veinsmobility acceleration ETV
vector 86 v5_0.node[16].veinsmobility co2emission ETV
vector 87 v5_0.node[17].veinsmobility speed ETV
vector 88 v5_0.node[17].veinsmobility acceleration ETV
vector 89 v5_0.node[17].veinsmobility co2emission ETV
vector 90 v5_0.node[18].veinsmobility posx ETV
vector 91 v5_0.node[18].veinsmobility posy ETV
vector 92 v5_0.node[18].veinsmobility speed ETV
vector 93 v5_0.node[18].veinsmobility acceleration ETV
vector 94 v5_0.node[18].veinsmobility co2emission ETV
vector 95 v5_0.node[19].veinsmobility posx ETV
vector 96 v5_0.node[19].veinsmobility posy ETV
vector 97 v5_0.node[19].veinsmobility speed ETV
vector 98 v5_0.node[20].veinsmobility posx ETV
vector 99 v5_0.node[20].veinsmobility posy ETV
vector 100 v5_0.node[19].veinsmobility acceleration ETV
vector 101 v5_0.node[19].veinsmobility co2emission ETV
vector 102 v5_0.node[20].veinsmobility speed ETV
vector 103 v5_0.node[20].veinsmobility acceleration ETV
vector 104 v5_0.node[20].veinsmobility co2emission ETV
vector 105 v5_0.node[21].veinsmobility posx ETV
vector 106 v5_0.node[21].veinsmobility posy ETV
vector 107 v5_0.node[21].veinsmobility speed ETV
vector 108 v5_0.node[21].veinsmobility acceleration ETV
vector 109 v5_0.node[21].veinsmobility co2emission ETV
0	2	0.5	2631.7350595066
0	3	1	2631.6926603558
0	4	1.5	2631.6229630968
0	5	2	2631.5282912727
0	6	2.5	2631.4086490547
0	7	3	2631.2604225505
0	8	3.5	2631.0878849679
0	9	4	2630.892145407
0	10	4.5	2630.6724391839
0	11	5	2630.4276965775
0	12	5.5	2630.1573760558
0	13	6	2629.8625589869
0	14	6.5	2629.5448277204
0	15	7	2629.2030409186
0	16	7.5	2628.6408029457
0	17	8	2627.8116486142
0	18	8.5	2626.9391961291
0	19	9	2626.0184382494
0	20	9.5	2625.0464957781
0	21	10	2624.0224871623
0	22	10.5	2622.9469447999
0	23	11	2621.8176152725
0	24	11.5	2620.6311656146
0	25	12	2619.3974312966
0	26	12.5	2618.1143565062
0	27	13	2616.7776122186
0	28	13.5	2615.3838827169
0	29	14	2613.933876192
0	30	14.5	2612.430882662
0	31	15	2610.8750346797
0	32	15.5	2609.2680088609
0	33	16	2607.6054052793
0	34	16.5	2605.8840043985
0	35	17	2604.1164308966
0	36	17.5	2602.2985366323
0	37	18	2600.4298359854
0	38	18.5	2598.5080573106
0	39	19	2596.5386160006
0	40	19.5	2594.5145886635
0	41	20	2592.4347862339
0	42	20.5	2590.3038963825
0	43	21	2588.1187586169
0	44	21.5	2585.876224402
0	45	22	2583.5771736375
0	46	22.5	2581.2272843939
0	47	23	2578.8250272302
0	48	23.5	2576.3650223406
0	49	24	2573.8493392041
0	50	24.5	2571.2797833098
0	51	25	2568.6863330575
0	52	25.5	2566.0916482897
0	53	26	2563.498984852
0	54	26.5	2560.9030062138
0	55	27	2558.3092978451
0	56	27.5	2555.7130857587
0	57	28	2553.1184064959
0	58	28.5	2550.5230329406
0	59	29	2547.9285410434
0	60	29.5	2545.3335305103
0	61	30	2542.739428506
0	62	30.5	2540.1439816806
0	63	31	2537.5483003752
0	64	31.5	2534.9544071521
0	65	32	2532.3592119595
0	66	32.5	2529.7648866439
0	67	33	2527.1705369354
0	68	33.5	2524.5772709372
0	147	34	2521.9808218135
0	148	34.5	2519.3844282731
0	149	35	2516.7892806227
0	150	35.5	2514.1939739176
0	151	36	2511.5996591776
0	152	36.5	2509.0064994983
0	153	37	2506.4130835157
0	154	37.5	2503.8182156581
0	392	38	2501.222583251
0	393	38.5	2498.628201986
0	473	39	2496.0341355706
0	474	39.5	2493.4383296432
0	475	40	2490.8435546545
0	476	40.5	2488.2493534428
0	553	41	2485.655102922
0	554	41.5	2483.0601970108
0	555	42	2480.4656198064
0	556	42.5	2477.8701654738
0	557	43	2475.2771442261
0	874	43.5	2472.6828952592
0	875	44	2470.0874233606
0	876	44.5	2467.4937271242
0	877	45	2464.8991101197
0	1278	45.5	2462.3044010754
0	1279	46	2459.7108201223
0	1280	46.5	2457.1153178372
0	1281	47	2454.51942465
0	1282	47.5	2452.1049758391
0	1283	48	2450.4052049746
0	1284	48.5	2448.7039828986
0	1285	49	2447.0023738908
0	1286	49.5	2445.4085903175
0	1287	50	2445.022678212
0	1288	50.5	2444.6394808504
0	1289	51	2444.2161111271
0	1290	51.5	2443.8162894422
0	1291	52	2443.4598866852
0	1292	52.5	2443.1468846647
0	1293	53	2442.8773015719
0	1294	53.5	2442.6511374067
0	1295	54	2442.4766616474
0	1296	54.5	2442.4362006881
0	1297	55	2442.3958884771
0	1298	55.5	2442.3652781798
0	1299	56	2442.3360842583
0	1300	56.5	2442.3120745602
0	1301	57	2442.2866568071
0	1302	57.5	2442.2598584306
0	1304	58	2442.2316234537
0	1306	58.5	2442.2020681472
0	1308	59	2442.1713431246
0	1309	59.5	2442.1391856663
0	1310	60	2442.088958404
0	1312	60.5	2441.8653528244
0	1313	61	2442.0513644307
0	1314	61.5	2442.4767216791
0	1315	62	2442.9179392915
0	1316	62.5	2443.3737840716
0	1317	63	2443.8517347983
0	1318	63.5	2444.4217074605
0	1319	64	2445.0086127939
0	1320	64.5	2445.6133645846
0	1321	65	2446.2357824997
0	1322	65.5	2446.8771158312
0	1323	66	2447.5357486801
0	1324	66.5	2448.1992618727
0	1325	67	2448.862762871
0	1326	67.5	2449.5261625623
0	1327	68	2450.1895460316
0	1328	68.5	2450.8528824874
0	1329	69	2451.515964735
0	1330	69.5	2452.1788810027
0	1331	70	2452.8420530326
0	1332	70.5	2453.5050027478
0	1333	71	2453.751541972
0	1334	71.5	2453.1490988773
0	1335	72	2452.5468109112
0	1336	72.5	2451.9442483508
0	1337	73	2451.3416938266
0	1338	73.5	2450.7399062938
0	1339	74	2450.1373549905
0	1340	74.5	2449.5348259914
0	1341	75	2448.9324109849
0	1342	75.5	2448.3303403773
0	1343	76	2447.728228266
0	1344	76.5	2447.1253676225
0	1345	77	2446.5228132036
0	1346	77.5	2445.9200862955
0	1347	78	2445.3180265242
1	2	0.5	3022.4123751242
1	3	1	3022.0353440456
1	4	1.5	3021.415566708
1	5	2	3020.5737050353
1	6	2.5	3019.5097961174
1	7	3	3018.1917037079
1	8	3.5	3016.6574269645
1	9	4	3014.916828474
1	10	4.5	3012.9631083431
1	11	5	3010.786754163
1	12	5.5	3008.3829504047
1	13	6	3005.7613130454
1	14	6.5	3002.9359130058
1	15	7	2999.8966010297
1	16	7.5	2996.6450931979
1	17	8	2993.1979513299
1	18	8.5	2989.5708009005
1	19	9	2985.7428247118
1	20	9.5	2981.7020527357
1	21	10	2977.4448199878
1	22	10.5	2972.9733398687
1	23	11	2968.2782439757
1	24	11.5	2963.345675773
1	25	12	2958.2165254327
1	26	12.5	2952.8822460799
1	27	13	2947.324840147
1	28	13.5	2941.5305228094
1	29	14	2935.5022383137
1	30	14.5	2929.2536646416
1	31	15	2922.7853528736
1	32	15.5	2916.1042734012
1	33	16	2909.1921338886
1	34	16.5	2902.0355493743
1	35	17	2894.6870059334
1	36	17.5	2887.1292580068
1	37	18	2879.3602866642
1	38	18.5	2871.3706477275
1	39	19	2863.1828552512
1	40	19.5	2854.7681257948
1	41	20	2846.1215159176
1	42	20.5	2837.262514228
1	43	21	2828.1779812351
1	44	21.5	2818.8548271619
1	45	22	2809.2967101177
1	46	22.5	2799.5272362214
1	47	23	2789.5400469452
1	48	23.5	2779.3127761837
1	49	24	2768.854027628
1	50	24.5	2758.171307452
1	51	25	2747.3892484205
1	52	25.5	2736.6020569913
1	53	26	2725.8232690776
1	54	26.5	2715.0306984866
1	55	27	2704.2475663582
1	56	27.5	2693.4540252248
1	57	28	2682.6668566819
1	58	28.5	2671.8768016752
1	59	29	2661.0903363554
1	60	29.5	2650.3012150247
1	61	30	2639.5158710303
1	62	30.5	2628.7249357523
1	63	31	2617.933025592
1	64	31.5	2607.148549634
1	65	32	2596.3586605554
1	66	32.5	2585.5723881116
1	67	33	2574.7860142523
1	68	33.5	2564.0041460712
1	147	34	2553.2090435969
1	148	34.5	2542.4141722191
1	149	35	2531.6244808035
1	150	35.5	2520.8341280958
1	151	36	2510.0478996225
1	152	36.5	2499.2664734768
1	153	37	2488.4839817137
1	154	37.5	2477.6954535758
1	392	38	2466.9037467167
1	393	38.5	2456.1172416564
1	473	39	2445.3320456278
1	474	39.5	2434.5396173326
1	475	40	2423.7514753109
1	476	40.5	2412.9657188477
1	553	41	2402.1797573743
1	554	41.5	2391.3910710234
1	555	42	2380.6031350009
1	556	42.5	2369.8111122204
1	557	43	2359.0292063234
1	874	43.5	2348.2421955122
1	875	44	2337.4500996917
1	876	44.5	2326.6653871592
1	877	45	2315.8768460304
1	1278	45.5	2305.0913538206
1	1279	46	2294.3107303949
1	1280	46.5	2283.5221206537
1	1281	47	2272.7318860656
1	1282	47.5	2261.9062922131
1	1283	48	2250.9511356279
1	1284	48.5	2239.9866258716
1	1285	49	2229.0196223091
1	1286	49.5	2218.0480424091
1	1287	50	2206.9662254723
1	1288	50.5	2195.9623648738
1	1289	51	2185.7672492983
1	1290	51.5	2176.5675061094
1	1291	52	2168.3668157468
1	1292	52.5	2161.1647596415
1	1293	53	2154.9617563616
1	1294	53.5	2149.7578059072
1	1295	54	2145.5507062245
1	1296	54.5	2142.2868555058
1	1297	55	2139.0350038158
1	1298	55.5	2135.5093273697
1	1299	56	2131.7345388792
1	1300	56.5	2127.7155241957
1	1301	57	2123.4608133426
1	1302	57.5	2118.9749981649
1	1304	58	2114.2487085368
1	1306	58.5	2109.3014072562
1	1308	59	2104.1583056375
1	1309	59.5	2098.7754267631
1	1310	60	2093.15354414
1	1312	60.5	2087.3117893916
1	1313	61	2081.2393657118
1	1314	61.5	2074.9422290567
1	1315	62	2068.410290055
1	1316	62.5	2061.6618053745
1	1317	63	2054.7280112086
1	1318	63.5	2047.6005479479
1	1319	64	2040.2613429669
1	1320	64.5	2032.6989694415
1	1321	65	2024.9156824239
1	1322	65.5	2016.8958596112
1	1323	66	2008.6597076971
1	1324	66.5	2000.3625274682
1	1325	67	1992.0654997295
1	1326	67.5	1983.769738825
1	1327	68	1975.4741807766
1	1328	68.5	1967.1792106293
1	1329	69	1958.8874193346
1	1330	69.5	1950.5977036031
1	1331	70	1942.3047895888
1	1332	70.5	1934.0146556012
1	1333	71	1925.7164624287
1	1334	71.5	1917.4184819944
1	1335	72	1909.1226382814
1	1336	72.5	1900.8230123408
1	1337	73	1892.5234970888
1	1338	73.5	1884.234546287
1	1339	74	1875.9350753976
1	1340	74.5	1867.6359117264
1	1341	75	1859.3383181756
1	1342	75.5	1851.0454683341
1	1343	76	1842.7520468254
1	1344	76.5	1834.4483151231
1	1345	77	1826.1488013212
1	1346	77.5	1817.8469116725
1	1347	78	1809.5542110885
2	2	0.5	1287.3631844854
2	3	1	1287.3971152697
2	4	1.5	1287.4522898303
2	5	2	1287.5264110332
2	6	2.5	1287.62113957
2	7	3	1287.7358140606
2	8	3.5	1287.8709316116
2	9	4	1288.0250132503
2	10	4.5	1288.1995021269
2	11	5	1288.3803450145
2	12	5.5	1288.5613218796
2	13	6	1288.7420702237
2	14	6.5	1288.9232484703
2	15	7	1289.1040265976
2	16	7.5	1289.2841547827
2	17	8	1289.4648170919
2	18	8.5	1289.6461204254
2	19	9	1289.8267889973
2	20	9.5	1290.0076002722
2	21	10	1290.1889275151
2	22	10.5	1290.3695223263
2	23	11	1290.5501811963
2	24	11.5	1292.6540879257
2	25	12	1297.5639150366
2	26	12.5	1302.8378810985
2	27	13	1306.2425469026
2	28	13.5	1308.2562478072
2	29	14	1306.9227445516
2	30	14.5	1302.2154254551
2	31	15	1297.5804711034
2	32	15.5	1293.6998546909
2	33	16	1292.3351438564
2	34	16.5	1292.4916450585
2	35	17	1292.6480421006
2	36	17.5	1292.8044126967
2	37	18	1292.9607878359
2	38	18.5	1293.1163144546
2	39	19	1293.2722946536
2	40	19.5	1293.42863945
2	41	20	1293.5848936621
2	42	20.5	1293.7413971183
2	43	21	1293.8970749625
2	44	21.5	1294.0528945931
2	45	22	1294.2089592799
2	46	22.5	1294.3654001004
2	47	23	1294.5220096927
2	48	23.5	1294.6781146179
2	49	24	1294.8335943035
2	50	24.5	1294.9893859179
2	51	25	1295.1450464214
2	52	25.5	1295.3011772342
2	53	26	1295.4576196355
2	54	26.5	1295.5972772553
2	55	27	1295.7222422449
2	56	27.5	1295.8614929161
2	57	28	1296.0132666022
2	58	28.5	1296.1741153949
2	59	29	1296.3396362179
2	60	29.5	1296.5189786375
2	61	30	1296.7132164361
2	62	30.5	1296.8634114895
2	63	31	1296.9796594604
2	64	31.5	1297.0746293006
2	65	32	1297.1695770607
2	66	32.5	1297.2645506554
2	67	33	1297.359677108
2	68	33.5	1297.0053546188
2	147	34	1296.5672262392
2	148	34.5	1296.0991005796
2	149	35	1295.6436717052
2	150	35.5	1295.2007070808
2	151	36	1294.7851236622
2	152	36.5	1294.5125636539
2	153	37	1294.4019141947
2	154	37.5	1294.4444998708
2	392	38	1294.4870621768
2	393	38.5	1294.5296114372
2	473	39	1294.5974091637
2	474	39.5	1294.7275687865
2	475	40	1294.8578931703
2	476	40.5	1294.9880754326
2	553	41	1295.1181630467
2	554	41.5	1295.2483270118
2	555	42	1295.3785065116
2	556	42.5	1295.5633635888
2	557	43	1296.3890562203
2	874	43.5	1296.9281189074
2	875	44	1297.3632236316
2	876	44.5	1297.6261571537
2	877	45	1297.8244374366
2	1278	45.5	1298.090879785
2	1279	46	1298.4361608364
2	1280	46.5	1298.9411975638
2	1281	47	1299.6294862628
2	1282	47.5	1300.4202688612
2	1283	48	1301.2810126139
2	1284	48.5	1302.2060202378
2	1285	49	1306.4554387565
2	1286	49.5	1307.479871987
2	1287	50	1308.5871834405
2	1288	50.5	1309.6923060738
2	1289	51	1310.7983917224
2	1290	51.5	1311.9028234141
2	1291	52	1313.006744389
2	1292	52.5	1314.1134096591
2	1293	53	1315.2160882422
2	1294	53.5	1316.3219116668
2	1295	54	1317.4548332968
2	1296	54.5	1318.7731161946
2	1297	55	1320.0808581468
2	1298	55.5	1321.3880658024
2	1299	56	1322.6369496842
2	1300	56.5	1323.8475046512
2	1301	57	1325.0410191318
2	1302	57.5	1326.2178633368
2	1304	58	1327.3984415013
2	1306	58.5	1328.580488653
2	1308	59	1329.7583094555
2	1309	59.5	1330.8109268157
2	1310	60	1331.4094457534
2	1312	60.5	1332.0075523928
2	1313	61	1336.1744907856
2	1314	61.5	1343.4164503298
2	1315	62	1350.6563991281
2	1316	62.5	1357.8923533631
2	1317	63	1365.1282095003
2	1318	63.5	1372.3881822573
2	1319	64	1379.6263951102
2	1320	64.5	1386.8612839555
2	1321	65	1394.0992780236
2	1322	65.5	1401.3384782862
2	1323	66	1408.5765585736
2	1324	66.5	1415.8357403666
2	1325	67	1423.0714272553
2	1326	67.5	1430.3186811844
2	1327	68	1437.5533606398
2	1328	68.5	1444.7915825465
2	1329	69	1452.0375515566
2	1330	69.5	1459.2902829245
2	1331	70	1466.5434528759
2	1332	70.5	1473.7848625788
2	1333	71	1481.031117663
2	1334	71.5	1488.2612899493
2	1335	72	1495.4986923692
2	1336	72.5	1502.7408661222
2	1337	73	1509.9986161843
2	1338	73.5	1517.2376443937
2	1339	74	1524.4720099461
2	1340	74.5	1531.71819129
2	1341	75	1538.9704064446
2	1342	75.5	1546.2147801785
2	1343	76	1553.4538177246
2	1344	76.5	1560.6760009221
2	1345	77	1567.9040942923
2	1346	77.5	1575.137491592
2	1347	78	1582.3420584303
3	2	0.5	1828.227079195
3	3	1	1827.4147938192
3	4	1.5	1826.0939434571
3	5	2	1824.3195203077
3	6	2.5	1822.0517682778
3	7	3	1819.3065204602
3	8	3.5	1816.071876375
3	9	4	1812.3832418723
3	10	4.5	1808.2060686797
3	11	5	1803.8767837603
3	12	5.5	1799.544291487
3	13	6	1795.2172698919
3	14	6.5	1790.8799566505
3	15	7	1786.5522220582
3	16	7.5	1782.2400467461
3	17	8	1777.9150847774
3	18	8.5	1773.5747770192
3	19	9	1769.2496651299
3	20	9.5	1764.9211369995
3	21	10	1760.5802568644
3	22	10.5	1756.2569107665
3	23	11	1751.9320311304
3	24	11.5	1748.6357935062
3	25	12	1748.9207613645
3	26	12.5	1749.2960902946
3	27	13	1744.5079231691
3	28	13.5	1738.9547530329
3	29	14	1732.2668259898
3	30	14.5	1727.1903217072
3	31	15	1722.99983963
3	32	15.5	1718.9507568683
3	33	16	1714.6683898177
3	34	16.5	1710.3294051997
3	35	17	1705.9933084091
3	36	17.5	1701.6579448339
3	37	18	1697.3224553019
3	38	18.5	1693.010490939
3	39	19	1688.6859510969
3	40	19.5	1684.3513028137
3	41	20	1680.0191659778
3	42	20.5	1675.6801188635
3	43	21	1671.363961787
3	44	21.5	1667.0438736901
3	45	22	1662.7169914255
3	46	22.5	1658.3796808859
3	47	23	1654.0376911573
3	48	23.5	1649.7096932884
3	49	24	1645.3990301434
3	50	24.5	1641.0797187919
3	51	25	1636.7640424827
3	52	25.5	1632.4353268854
3	53	26	1628.0979725132
3	54	26.5	1624.2259750105
3	55	27	1620.7613296257
3	56	27.5	1616.6744660605
3	57	28	1612.0453686332
3	58	28.5	1606.8896398498
3	59	29	1601.2832893953
3	60	29.5	1595.2087880848
3	61	30	1588.6297658775
3	62	30.5	1581.530589656
3	63	31	1574.2655425621
3	64	31.5	1567.0154586174
3	65	32	1559.7670602947
3	66	32.5	1552.5166897373
3	67	33	1545.2546498692
3	68	33.5	1538.0031152302
3	147	34	1530.7733739205
3	148	34.5	1523.5534358639
3	149	35	1516.3247553399
3	150	35.5	1509.0925059915
3	151	36	1501.846289414
3	152	36.5	1494.5961931935
3	153	37	1487.3409345467
3	154	37.5	1480.0942719905
3	392	38	1472.851586258
3	393	38.5	1465.6111204317
3	473	39	1458.3558320208
3	474	39.5	1451.1042794175
3	475	40	1443.8435475258
3	476	40.5	1436.5907336148
3	553	41	1429.3431928195
3	554	41.5	1422.0913982913
3	555	42	1414.8387382878
3	556	42.5	1407.595704902
3	557	43	1400.7349858135
3	874	43.5	1394.9460962126
3	875	44	1390.2735910024
3	876	44.5	1386.7135161944
3	877	45	1383.2086206041
3	1278	45.5	1379.1482868316
3	1279	46	1374.6234036069
3	1280	46.5	1369.6693310766
3	1281	47	1364.2835673774
3	1282	47.5	1358.4462845782
3	1283	48	1352.1681404524
3	1284	48.5	1345.4212646699
3	1285	49	1338.7021733411
3	1286	49.5	1331.5336601986
3	1287	50	1324.3572842069
3	1288	50.5	1317.1950937416
3	1289	51	1310.0266620703
3	1290	51.5	1302.8689495297
3	1291	52	1295.7145468947
3	1292	52.5	1288.5423587523
3	1293	53	1281.3960079355
3	1294	53.5	1274.2292757118
3	1295	54	1267.0766042247
3	1296	54.5	1259.9630619744
3	1297	55	1252.8548516864
3	1298	55.5	1245.7495455584
3	1299	56	1238.6269551748
3	1300	56.5	1231.5193399116
3	1301	57	1224.386536085
3	1302	57.5	1217.2831780165
3	1304	58	1210.1572820013
3	1306	58.5	1203.0225192718
3	1308	59	1195.9132665219
3	1309	59.5	1188.7771325214
3	1310	60	1181.5869250158
3	1312	60.5	1174.4016705891
3	1313	61	1170.008220369
3	1314	61.5	1170.374673482
3	1315	62	1170.7601827504
3	1316	62.5	1170.9340754179
3	1317	63	1170.9734676257
3	1318	63.5	1171.0129911248
3	1319	64	1171.0523961624
3	1320	64.5	1171.0917831045
3	1321	65	1171.131186951
3	1322	65.5	1171.1705973642
3	1323	66	1171.2100016801
3	1324	66.5	1171.2972164741
3	1325	67	1171.4328529984
3	1326	67.5	1171.5009855609
3	1327	68	1171.5199146019
3	1328	68.5	1171.5388529105
3	1329	69	1171.5177570311
3	1330	69.5	1171.4805782028
3	1331	70	1171.4433971271
3	1332	70.5	1171.4062763359
3	1333	71	1171.2589158835
3	1334	71.5	1171.0261147637
3	1335	72	1170.7930808431
3	1336	72.5	1170.5598932933
3	1337	73	1170.3262042087
3	1338	73.5	1170.0931179402
3	1339	74	1169.8601818038
3	1340	74.5	1169.6268652147
3	1341	75	1169.3206358878
3	1342	75.5	1168.866070888
3	1343	76	1168.4118407201
3	1344	76.5	1167.8725070758
3	1345	77	1167.3215934001
3	1346	77.5	1166.7702754671
3	1347	78	1166.0935406061
4	2	0.5	243.31602054439
4	3	1	243.30913937406
4	4	1.5	243.29782204749
4	5	2	243.28247408115
4	6	2.5	243.26342766208
4	7	3	243.24040584138
4	8	3.5	243.21380397596
4	9	4	243.18310993013
4	10	4.5	243.1484340321
4	11	5	243.10924115102
4	12	5.5	243.0663145869
4	13	6	243.01953350392
4	14	6.5	242.96903013124
4	15	7	242.91449734592
4	16	7.5	242.85595049639
4	17	8	242.79419269238
4	18	8.5	242.73295519606
4	19	9	242.26508669544
4	20	9.5	241.68610673898
4	21	10	241.10712287819
4	22	10.5	240.52771094977
4	23	11	239.94936719164
4	24	11.5	239.37215495552
4	25	12	238.79357286438
4	26	12.5	238.21557328652
4	27	13	237.63733651803
4	28	13.5	237.05823889328
4	29	14	236.48010755552
4	30	14.5	235.90121453989
4	31	15	235.80409846641
4	32	15.5	235.0742950117
4	33	16	232.5949971755
4	34	16.5	230.11229897349
4	35	17	227.62779660232
4	36	17.5	225.14764125971
4	37	18	222.66813646222
4	38	18.5	220.19162743364
4	39	19	217.70837988122
4	40	19.5	215.22731687815
4	41	20	212.75282488286
4	42	20.5	210.27264811459
4	43	21	207.79659313092
4	44	21.5	205.31452671322
4	45	22	202.83089691552
4	46	22.5	200.3480367423
4	47	23	197.87148526474
4	48	23.5	195.38814299658
4	49	24	192.90354517207
4	50	24.5	190.41885485034
4	51	25	187.93716550677
4	52	25.5	185.45432597469
4	53	26	182.97469523118
4	54	26.5	180.49361961486
4	55	27	179.61417745787
4	56	27.5	178.8559691062
4	57	28	178.09591954772
4	58	28.5	177.33738778485
4	59	29	176.57814397954
4	60	29.5	175.81934606808
4	61	30	175.05880281387
4	62	30.5	174.29889175657
4	63	31	173.54065930506
4	64	31.5	172.78142890846
4	65	32	172.02238947642
4	66	32.5	171.26402847329
4	67	33	170.50400739827
4	68	33.5	169.79079523124
4	147	34	169.44349024096
4	148	34.5	169.49539697205
4	149	35	169.59012659499
4	150	35.5	169.6847860238
4	151	36	169.7796467169
4	152	36.5	169.87425518362
4	153	37	170.12243900937
4	154	37.5	170.40556825069
4	392	38	170.68902704504
4	393	38.5	170.97228521679
4	473	39	171.25559044897
4	474	39.5	171.5390419754
4	475	40	171.82247454638
4	476	40.5	172.10592645709
4	553	41	172.38946074515
4	554	41.5	172.6729433944
4	555	42	172.95657042495
4	556	42.5	173.23988411739
4	557	43	173.61277161411
4	874	43.5	174.14280516421
4	875	44	174.67226522055
4	876	44.5	176.09652246546
4	877	45	178.58705503435
4	1278	45.5	181.07482282538
4	1279	46	183.56480070169
4	1280	46.5	186.05373565783
4	1281	47	188.58123323927
4	1282	47.5	191.17984637397
4	1283	48	193.77774498193
4	1284	48.5	196.67387435597
4	1285	49	200.19107397192
4	1286	49.5	203.72778743366
4	1287	50	207.26647331018
4	1288	50.5	210.79940940742
4	1289	51	214.33261358016
4	1290	51.5	217.86818029277
4	1291	52	221.40024221234
4	1292	52.5	224.93759651517
4	1293	53	228.4735406317
4	1294	53.5	232.01025300391
4	1295	54	235.5882561797
4	1296	54.5	239.87695087795
4	1297	55	244.16687112593
4	1298	55.5	248.46016390785
4	1299	56	252.75870260666
4	1300	56.5	257.05186138733
4	1301	57	261.35513759439
4	1302	57.5	265.64738122816
4	1304	58	269.9436453149
4	1306	58.5	274.23756451625
4	1308	59	278.52956969908
4	1309	59.5	282.82938435557
4	1310	60	287.12722960976
4	1312	60.5	291.42781023402
4	1313	61	295.66003877192
4	1314	61.5	299.59344093536
4	1315	62	303.53082128626
4	1316	62.5	307.46605655144
4	1317	63	311.39996498288
4	1318	63.5	315.34040090628
4	1319	64	319.27257643803
4	1320	64.5	323.20724542509
4	1321	65	327.14609402395
4	1322	65.5	331.08839822107
4	1323	66	335.02932583459
4	1324	66.5	338.97178067884
4	1325	67	342.91035109595
4	1326	67.5	346.84438368573
4	1327	68	350.78055117372
4	1328	68.5	354.71536925121
4	1329	69	358.64867783256
4	1330	69.5	362.36900405621
4	1331	70	365.25437051244
4	1332	70.5	368.09528447106
4	1333	71	370.93264405918
4	1334	71.5	373.77346710279
4	1335	72	376.61451679771
4	1336	72.5	379.45626523183
4	1337	73	382.31811501482
4	1338	73.5	385.22572085948
4	1339	74	388.12859525275
4	1340	74.5	391.0330289033
4	1341	75	393.93720605224
4	1342	75.5	396.83672892116
4	1343	76	399.73664336978
4	1344	76.5	402.63857411477
4	1345	77	405.53953959781
4	1346	77.5	408.44239268859
4	1347	78	411.31388247979
5	2	0.5	2497.1688996973
5	3	1	2496.3316489356
5	4	1.5	2494.9546389403
5	5	2	2493.0872100228
5	6	2.5	2490.7697802708
5	7	3	2487.9686525557
5	8	3.5	2484.7319310447
5	9	4	2480.9973027781
5	10	4.5	2476.7781916922
5	11	5	2472.0094869528
5	12	5.5	2466.7864948306
5	13	6	2461.0945128687
5	14	6.5	2454.9496297827
5	15	7	2448.3144770721
5	16	7.5	2441.1909222081
5	17	8	2433.5380245307
5	18	8.5	2425.5499333367
5	19	9	2417.5871251784
5	20	9.5	2409.6034747697
5	21	10	2401.6197705222
5	22	10.5	2393.6301635792
5	23	11	2385.6552858138
5	24	11.5	2377.6960107926
5	25	12	2369.7178466134
5	26	12.5	2361.7477148054
5	27	13	2353.7743123379
5	28	13.5	2345.7890393818
5	29	14	2337.8170907153
5	30	14.5	2329.834639146
5	31	15	2321.8400533656
5	32	15.5	2313.9513235185
5	33	16	2306.358641657
5	34	16.5	2298.7555464059
5	35	17	2291.1469260082
5	36	17.5	2283.5516180908
5	37	18	2275.9583024252
5	38	18.5	2268.3741610982
5	39	19	2260.7693834985
5	40	19.5	2253.1712959325
5	41	20	2245.5933316341
5	42	20.5	2237.9979581023
5	43	21	2230.4152072575
5	44	21.5	2222.814046802
5	45	22	2215.2080986015
5	46	22.5	2207.6045073243
5	47	23	2200.0202360004
5	48	23.5	2192.4151683394
5	49	24	2184.8062556228
5	50	24.5	2177.1970596397
5	51	25	2169.5970539479
5	52	25.5	2161.9935258832
5	53	26	2154.399824515
5	54	26.5	2146.8016983224
5	55	27	2138.8746753475
5	56	27.5	2130.9304732559
5	57	28	2122.9669797411
5	58	28.5	2115.019389079
5	59	29	2107.0643379204
5	60	29.5	2099.1139586596
5	61	30	2091.1452923995
5	62	30.5	2083.1832500445
5	63	31	2075.2387954444
5	64	31.5	2067.2838847786
5	65	32	2059.3309749616
5	66	32.5	2051.3851734512
5	67	33	2043.4219783731
5	68	33.5	2035.4573568702
5	147	34	2027.4610729283
5	148	34.5	2019.4810722796
5	149	35	2011.4843132757
5	150	35.5	2003.4934798256
5	151	36	1995.4856563201
5	152	36.5	1987.4991249219
5	153	37	1979.6536396155
5	154	37.5	1971.6674700528
5	392	38	1963.6720048534
5	393	38.5	1955.6821985766
5	473	39	1947.6910648718
5	474	39.5	1939.6958046798
5	475	40	1931.7010791581
5	476	40.5	1923.7058081245
5	553	41	1915.7082134867
5	554	41.5	1907.7120754188
5	555	42	1899.7118648142
5	556	42.5	1891.7204924747
5	557	43	1883.7359081525
5	874	43.5	1875.7509871386
5	875	44	1867.7747057695
5	876	44.5	1859.9732490843
5	877	45	1852.3763415627
5	1278	45.5	1844.7878674828
5	1279	46	1837.1926519489
5	1280	46.5	1829.6006176481
5	1281	47	1822.0174402529
5	1282	47.5	1814.4555595871
5	1283	48	1806.8957581716
5	1284	48.5	1799.471004121
5	1285	49	1792.3053684356
5	1286	49.5	1785.131542041
5	1287	50	1777.9537148234
5	1288	50.5	1770.7875503879
5	1289	51	1763.6208421923
5	1290	51.5	1756.4493418494
5	1291	52	1749.2849505851
5	1292	52.5	1742.1098243156
5	1293	53	1734.9375584517
5	1294	53.5	1727.7637342662
5	1295	54	1720.6248370688
5	1296	54.5	1713.8965561865
5	1297	55	1707.166352611
5	1298	55.5	1700.4308580654
5	1299	56	1693.6871335097
5	1300	56.5	1686.9518491905
5	1301	57	1680.2006922364
5	1302	57.5	1673.4668436376
5	1304	58	1666.7266875869
5	1306	58.5	1659.9902102891
5	1308	59	1653.2567357821
5	1309	59.5	1646.511009451
5	1310	60	1639.7683727993
5	1312	60.5	1633.0214447873
5	1313	61	1626.2429542998
5	1314	61.5	1619.292198956
5	1315	62	1612.3344137166
5	1316	62.5	1605.3787845438
5	1317	63	1598.4238969414
5	1318	63.5	1591.4574691672
5	1319	64	1584.5056452155
5	1320	64.5	1577.5494130002
5	1321	65	1570.5857915115
5	1322	65.5	1563.6160607543
5	1323	66	1556.648763706
5	1324	66.5	1549.6787666157
5	1325	67	1542.7156369323
5	1326	67.5	1535.7605298255
5	1327	68	1528.8016483616
5	1328	68.5	1521.8451525643
5	1329	69	1514.8913254561
5	1330	69.5	1507.8183834413
5	1331	70	1500.3619085737
5	1332	70.5	1492.8893472515
5	1333	71	1485.4261351209
5	1334	71.5	1477.9538129363
5	1335	72	1470.4808945814
5	1336	72.5	1463.006138307
5	1337	73	1455.5258132825
5	1338	73.5	1448.0641734777
5	1339	74	1440.6146757547
5	1340	74.5	1433.1611765902
5	1341	75	1425.7083356725
5	1342	75.5	1418.2674387945
5	1343	76	1410.8255370259
5	1344	76.5	1403.378460939
5	1345	77	1395.9338619541
5	1346	77.5	1388.4844188988
5	1347	78	1381.0295603536
6	2	0.5	1630.0247913966
6	3	1	1630.0082108838
6	4	1.5	1629.9812774651
6	5	2	1629.8417228467
6	6	2.5	1629.598968075
6	7	3	1629.3054750046
6	8	3.5	1628.9658557308
6	9	4	1628.5728588598
6	10	4.5	1628.1282675097
6	11	5	1627.6355270261
6	12	5.5	1627.0910144426
6	13	6	1626.4940830157
6	14	6.5	1625.8345458684
6	15	7	1625.0961785339
6	16	7.5	1624.322276724
6	17	8	1623.6989221299
6	18	8.5	1623.0772683261
6	19	9	1622.4546982928
6	20	9.5	1621.8158716178
6	21	10	1621.1479699811
6	22	10.5	1620.4805658566
6	23	11	1619.8128705663
6	24	11.5	1619.1453593093
6	25	12	1618.477649382
6	26	12.5	1617.8102521775
6	27	13	1617.1432332682
6	28	13.5	1616.4748463017
6	29	14	1615.5620805648
6	30	14.5	1614.8538707139
6	31	15	1614.1444828574
6	32	15.5	1613.4359561502
6	33	16	1612.7275783645
6	34	16.5	1612.0191638161
6	35	17	1611.3111493622
6	36	17.5	1610.6013700862
6	37	18	1609.9844655549
6	38	18.5	1609.3916057335
6	39	19	1608.7978704775
6	40	19.5	1608.2024692262
6	41	20	1607.5996517522
6	42	20.5	1606.9399328879
6	43	21	1606.2808350986
6	44	21.5	1605.6199371605
6	45	22	1604.9601680936
6	46	22.5	1604.3006430242
6	47	23	1603.6409381006
6	48	23.5	1602.9812482408
6	49	24	1602.3200556216
6	50	24.5	1601.6594453757
6	51	25	1600.9992167008
6	52	25.5	1600.3514186537
6	53	26	1599.7119629709
6	54	26.5	1599.074586045
6	55	27	1598.4685066192
6	56	27.5	1598.2871992715
6	57	28	1600.1327301846
6	58	28.5	1604.5245775143
6	59	29	1608.8714928426
6	60	29.5	1613.2086702916
6	61	30	1617.5543518139
6	62	30.5	1621.8981999634
6	63	31	1626.2505997774
6	64	31.5	1630.5994169144
6	65	32	1634.9475009422
6	66	32.5	1639.3068751593
6	67	33	1643.6594599589
6	68	33.5	1648.0111841358
6	147	34	1652.3707087236
6	148	34.5	1656.7378211758
6	149	35	1661.1153184619
6	150	35.5	1665.4786211952
6	151	36	1669.8497660584
6	152	36.5	1674.2195324327
6	153	37	1678.5747012508
6	154	37.5	1682.9394769202
6	392	38	1687.2844451248
6	393	38.5	1691.6535222295
6	473	39	1696.007967332
6	474	39.5	1700.3603826565
6	475	40	1704.7219716228
6	476	40.5	1709.0685501357
6	553	41	1713.421631285
6	554	41.5	1717.772810848
6	555	42	1722.1196195115
6	556	42.5	1726.4788973695
6	557	43	1730.8314410215
6	874	43.5	1735.1881622528
6	875	44	1739.5504760824
6	876	44.5	1743.9007958359
6	877	45	1748.2549870936
6	1278	45.5	1752.6101947357
6	1279	46	1756.9728058497
6	1280	46.5	1761.3346374495
6	1281	47	1765.6900989362
6	1282	47.5	1770.0566241341
6	1283	48	1774.41547178
6	1284	48.5	1778.7760363325
6	1285	49	1783.1222143166
6	1286	49.5	1787.4824368078
6	1287	50	1791.8482998944
6	1288	50.5	1796.1887652293
6	1289	51	1800.5258676313
6	1290	51.5	1804.8860753857
6	1291	52	1809.2343602234
6	1292	52.5	1813.5937689443
6	1293	53	1817.9450976856
6	1294	53.5	1822.3073966277
6	1295	54	1826.6539629906
6	1296	54.5	1830.9981052334
6	1297	55	1835.3537803019
6	1298	55.5	1839.7118837045
6	1299	56	1844.065977226
6	1300	56.5	1848.4172813307
6	1301	57	1852.7685238142
6	1302	57.5	1857.1245474649
6	1304	58	1861.4775959136
6	1306	58.5	1865.8314805964
6	1308	59	1870.1833637168
6	1309	59.5	1874.4006811352
6	1310	60	1877.8581749013
6	1312	60.5	1881.7474716639
6	1313	61	1886.0634982631
6	1314	61.5	1890.440647183
6	1315	62	1894.7923598661
6	1316	62.5	1899.1637865725
6	1317	63	1903.5218174245
6	1318	63.5	1907.8794477829
6	1319	64	1912.2461129271
6	1320	64.5	1916.6044484593
6	1321	65	1920.9571130626
6	1322	65.5	1925.1996808833
6	1323	66	1929.5593684167
6	1324	66.5	1933.9107909766
6	1325	67	1938.2639543132
6	1326	67.5	1942.6266056013
6	1327	68	1946.9707487051
6	1328	68.5	1951.3157593348
6	1329	69	1955.6733094592
6	1330	69.5	1960.0258806145
6	1331	70	1963.988371341
6	1332	70.5	1967.271371744
6	1333	71	1971.1146937864
6	1334	71.5	1975.4264215742
6	1335	72	1979.7885677466
6	1336	72.5	1984.1448536554
6	1337	73	1988.5080524788
6	1338	73.5	1992.8635246024
6	1339	74	1997.2101879908
6	1340	74.5	2001.5567318412
6	1341	75	2005.9198299769
6	1342	75.5	2010.2616626488
6	1343	76	2014.6048769309
6	1344	76.5	2018.9551789366
6	1345	77	2023.3116549015
6	1346	77.5	2027.661583852
6	1347	78	2032.0213878695
7	2	0.5	360.29248770513
7	3	1	361.13602129091
7	4	1.5	362.5062589664
7	5	2	364.3352372963
7	6	2.5	366.71067855973
7	7	3	369.58261201344
7	8	3.5	372.90590667538
7	9	4	376.75151999667
7	10	4.5	381.10200353526
7	11	5	385.9236433683
7	12	5.5	391.25189150218
7	13	6	397.09307655133
7	14	6.5	403.44417801127
7	15	7	410.23715748917
7	16	7.5	417.44994158298
7	17	8	424.71971334238
7	18	8.5	431.96964991186
7	19	9	439.23027185909
7	20	9.5	446.49580528866
7	21	10	453.75826318469
7	22	10.5	461.01531136036
7	23	11	468.27552554011
7	24	11.5	475.5337386271
7	25	12	482.7941119615
7	26	12.5	490.05108489189
7	27	13	497.30394441355
7	28	13.5	504.57167956606
7	29	14	511.7895232439
7	30	14.5	519.03953384049
7	31	15	526.30160379037
7	32	15.5	533.55485807359
7	33	16	540.80658783298
7	34	16.5	548.05869393703
7	35	17	555.30670423526
7	36	17.5	562.57278118469
7	37	18	569.83576083463
7	38	18.5	577.08640474733
7	39	19	584.34775517788
7	40	19.5	591.61120824516
7	41	20	598.88374377042
7	42	20.5	606.13970067352
7	43	21	613.38882664684
7	44	21.5	620.65775166359
7	45	22	627.91426072363
7	46	22.5	635.16808616463
7	47	23	642.42388973851
7	48	23.5	649.67952763475
7	49	24	656.95169372018
7	50	24.5	664.21745453775
7	51	25	671.47901862208
7	52	25.5	678.73389636446
7	53	26	685.99258249253
7	54	26.5	693.2482074732
7	55	27	700.15127387363
7	56	27.5	706.0995322438
7	57	28	711.40140250884
7	58	28.5	713.50090264063
7	59	29	713.69153064582
7	60	29.5	713.86569899227
7	61	30	714.04020883795
7	62	30.5	714.21464506071
7	63	31	714.38942469377
7	64	31.5	714.56406045612
7	65	32	714.73866677936
7	66	32.5	714.91372648347
7	67	33	715.08851354383
7	68	33.5	715.26326604467
7	147	34	715.43833178747
7	148	34.5	715.61370223667
7	149	35	715.78948970977
7	150	35.5	715.96470717154
7	151	36	716.1402395498
7	152	36.5	716.31571657304
7	153	37	716.49060740042
7	154	37.5	716.66588401143
7	392	38	716.84036521148
7	393	38.5	717.01581455581
7	473	39	717.19067632034
7	474	39.5	717.36545657553
7	475	40	717.54060521815
7	476	40.5	717.71515108366
7	553	41	717.88995807711
7	554	41.5	718.0646887077
7	555	42	718.23924381565
7	556	42.5	718.41429965012
7	557	43	718.58908505924
7	874	43.5	718.76403822657
7	875	44	718.93921597674
7	876	44.5	719.15372188389
7	877	45	719.36859831586
7	1278	45.5	719.58352490515
7	1279	46	719.79881685134
7	1280	46.5	720.01407032926
7	1281	47	720.22900944576
7	1282	47.5	720.44449454919
7	1283	48	720.65960077103
7	1284	48.5	720.87479172088
7	1285	49	721.08927270304
7	1286	49.5	721.30444677174
7	1287	50	721.51989920065
7	1288	50.5	721.73409826774
7	1289	51	721.94818563107
7	1290	51.5	722.16349143907
7	1291	52	722.37820849568
7	1292	52.5	722.59347484726
7	1293	53	722.80834221188
7	1294	53.5	723.0237512812
7	1295	54	723.23838348035
7	1296	54.5	723.45289597753
7	1297	55	723.66797796264
7	1298	55.5	723.8831798574
7	1299	56	724.09818374552
7	1300	56.5	724.31304989383
7	1301	57	724.52791299857
7	1302	57.5	724.74301219638
7	1304	58	724.95796447899
7	1306	58.5	725.17295805458
7	1308	59	725.38785279449
7	1309	59.5	725.59610271826
7	1310	60	725.76683276799
7	1312	60.5	725.94830236491
7	1313	61	726.10342382826
7	1314	61.5	726.26039742585
7	1315	62	726.34416091442
7	1316	62.5	726.42830386665
7	1317	63	726.51218897011
7	1318	63.5	726.59606636502
7	1319	64	726.68011766486
7	1320	64.5	726.76400863286
7	1321	65	726.84779044427
7	1322	65.5	726.95245877374
7	1323	66	727.08402530476
7	1324	66.5	727.2153424155
7	1325	67	727.34671206027
7	1326	67.5	727.47836803179
7	1327	68	727.60946546309
7	1328	68.5	727.74058907479
7	1329	69	727.87209110335
7	1330	69.5	728.00344287697
7	1331	70	728.10784678347
7	1332	70.5	728.18306377344
7	1333	71	728.29019937292
7	1334	71.5	728.4348275587
7	1335	72	728.59292192478
7	1336	72.5	728.79428598657
7	1337	73	728.9959695898
7	1338	73.5	729.19729603548
7	1339	74	729.39821530785
7	1340	74.5	729.59912905563
7	1341	75	729.8008080041
7	1342	75.5	730.00150398258
7	1343	76	730.20226382464
7	1344	76.5	730.40335128829
7	1345	77	730.60472413525
7	1346	77.5	730.80579435453
7	1347	78	731.00732103642
8	3	1	0.96315724250003
8	4	1.5	1.4163082134939
8	5	2	1.8730117260368
8	6	2.5	2.3571391038766
8	7	3	2.8579845126981
8	8	3.5	3.226170594006
8	9	4	3.6683751018142
8	10	4.5	4.096395278115
8	11	5	4.5673459860759
8	12	5.5	5.0041966364236
8	13	6	5.4528541425599
8	14	6.5	5.8326756184112
8	15	7	6.3185249040166
8	16	7.5	6.8164614663955
8	17	8	7.2483342648793
8	18	8.5	7.6306189449347
8	19	9	8.0300661469979
8	20	9.5	8.4971491859045
8	21	10	8.9360353771627
8	22	10.5	9.3978944510204
8	23	11	9.8634379853105
8	24	11.5	10.317759716001
8	25	12	10.714327577011
8	26	12.5	11.151482744485
8	27	13	11.636657540172
8	28	13.5	12.128458942918
8	29	14	12.574270750012
8	30	14.5	13.063242460064
8	31	15	13.48613080303
8	32	15.5	13.890868600824
8	33	16	14.428135147968
8	34	16.5	14.888480121305
8	35	17	15.285900480401
8	36	17.5	15.704661329704
8	37	18	16.182874826592
8	38	18.5	16.576163220711
8	39	19	17.04590348
8	40	19.5	17.511949481893
8	41	20	17.948874973443
8	42	20.5	18.398306984392
8	43	21	18.875087373511
8	44	21.5	19.375399535641
8	45	22	19.816389375537
8	46	22.5	20.27372128587
8	47	23	20.748558687948
8	48	23.5	21.214605076791
8	49	24	21.723559591782
8	50	24.5	22.158030788045
8	51	25	22.180865816828
8	52	25.5	22.164680755404
8	53	26	22.164840675383
8	54	26.5	22.218768838248
8	55	27	22.171807797495
8	56	27.5	22.215426433589
8	57	28	22.199853998441
8	58	28.5	22.167198591596
8	59	29	22.16194917758
8	60	29.5	22.206758969524
8	61	30	22.178201122959
8	62	30.5	22.214963697381
8	63	31	22.198859407622
8	64	31.5	22.2038517011
8	65	32	22.186262325868
8	66	32.5	22.202624620232
8	67	33	22.219863656233
8	68	33.5	22.167788052191
8	147	34	22.202800164078
8	148	34.5	22.217187748034
8	149	35	22.195973929828
8	150	35.5	22.211866106712
8	151	36	22.170279956269
8	152	36.5	22.163523615594
8	153	37	22.168545345282
8	154	37.5	22.167798402975
8	392	38	22.186826498653
8	393	38.5	22.193691120511
8	473	39	22.185229519703
8	474	39.5	22.177593529359
8	475	40	22.19146439536
8	476	40.5	22.162687323107
8	553	41	22.197801454882
8	554	41.5	22.217959166225
8	555	42	22.204708646093
8	556	42.5	22.200998968482
8	557	43	22.165243705269
8	874	43.5	22.2156477495
8	875	44	22.215933352709
8	876	44.5	22.165281229946
8	877	45	22.195793533404
8	1278	45.5	22.168840515916
8	1279	46	22.177717501842
8	1280	46.5	22.185965690343
8	1281	47	22.214475051789
8	1282	47.5	22.215324746016
8	1283	48	22.167504116255
8	1284	48.5	22.193515154943
8	1285	49	22.177530833464
8	1286	49.5	22.169618578316
8	1287	50	22.206625824641
8	1288	50.5	21.580384363871
8	1289	51	19.616930420607
8	1290	51.5	17.616930420607
8	1291	52	15.616930420607
8	1292	52.5	13.61776835161
8	1293	53	11.61776835161
8	1294	53.5	9.6177683516095
8	1295	54	7.621709618162
8	1296	54.5	6.1442299241564
8	1297	55	6.7442299241564
8	1298	55.5	7.255018803835
8	1299	56	7.7594606428632
8	1300	56.5	8.2108324556184
8	1301	57	8.7083027334084
8	1302	57.5	9.1773656754932
8	1304	58	9.6408373741704
8	1306	58.5	10.031210490148
8	1308	59	10.484874080326
8	1309	59.5	10.936389134316
8	1310	60	11.464534922367
8	1312	60.5	11.840224058138
8	1313	61	12.359627453148
8	1314	61.5	12.792568083814
8	1315	62	13.280919353938
8	1316	62.5	13.686657109763
8	1317	63	14.05839870647
8	1318	63.5	14.460127212111
8	1319	64	14.901902201068
8	1320	64.5	15.351649767076
8	1321	65	15.798307207603
8	1322	65.5	16.258607918065
8	1323	66	16.628750642347
8	1324	66.5	16.650571294082
8	1325	67	16.616772580417
8	1326	67.5	16.650385994595
8	1327	68	16.654690879406
8	1328	68.5	16.664125773064
8	1329	69	16.651049871976
8	1330	69.5	16.62023888641
8	1331	70	16.626875846363
8	1332	70.5	16.616585292728
8	1333	71	16.641551270909
8	1334	71.5	16.641791198403
8	1335	72	16.653362404625
8	1336	72.5	16.635026598955
8	1337	73	16.638479435425
8	1338	73.5	16.632992752376
8	1339	74	16.667005961989
8	1340	74.5	16.644645532873
8	1341	75	16.660747380229
8	1342	75.5	16.633879308454
8	1343	76	16.635898684096
8	1344	76.5	16.648442312512
8	1345	77	16.626150358738
8	1346	77.5	16.61202521604
8	1347	78	16.613346314928
9	3	1	2.0116060111359
9	4	1.5	3.0081261322249
9	5	2	3.9596735773885
9	6	2.5	4.9147222280081
9	7	3	5.889326381562
9	8	3.5	6.8788821249406
9	9	4	7.7938837797867
9	10	4.5	8.7023372510245
9	11	5	8.6754488682753
9	12	5.5	8.6928926480847
9	13	6	8.6739304756915
9	14	6.5	8.6486439504597
9	15	7	8.6071240203461
9	16	7.5	8.6096484815405
9	17	8	8.6765494632844
9	18	8.5	8.691906216222
9	19	9	8.6895699835668
9	20	9.5	8.6917188767746
9	21	10	8.6876668885426
9	22	10.5	8.6548053989519
9	23	11	8.6498789012042
9	24	11.5	9.3105579491106
9	25	12	10.306217582808
9	26	12.5	11.226979594259
9	27	13	12.140981362973
9	28	13.5	13.117551298785
9	29	14	13.969481934591
9	30	14.5	13.8435789962
9	31	15	11.61471192603
9	32	15.5	10.5303115453
9	33	16	8.727996280003
9	34	16.5	8.6786673143745
9	35	17	8.6113086891018
9	36	17.5	8.6799250831228
9	37	18	8.7312646191504
9	38	18.5	8.6191957829014
9	39	19	8.6255628256739
9	40	19.5	8.640095662757
9	41	20	8.7224545112398
9	42	20.5	8.7102991879225
9	43	21	8.6680538501061
9	44	21.5	8.687159623318
9	45	22	8.6143776310661
9	46	22.5	8.701649005111
9	47	23	8.694289473822
9	48	23.5	8.6238870165713
9	49	24	8.6729226478452
9	50	24.5	8.6525806385588
9	51	25	8.6307179475512
9	52	25.5	8.6969431934116
9	53	26	8.6335482753773
9	54	26.5	6.8635875598246
9	55	27	7.4535875598246
9	56	27.5	8.6192236613829
9	57	28	9.7195325001443
9	58	28.5	10.723088909916
9	59	29	11.642868467171
9	60	29.5	12.546221441766
9	61	30	13.645800116907
9	62	30.5	14.559675122629
9	63	31	14.495002092735
9	64	31.5	14.541947132022
9	65	32	14.435276740821
9	66	32.5	14.540433851882
9	67	33	14.548035021111
9	68	33.5	14.47648254187
9	147	34	14.488430435123
9	148	34.5	14.498726023423
9	149	35	14.506795355849
9	150	35.5	14.456248789478
9	151	36	14.534164740203
9	152	36.5	14.453060064965
9	153	37	14.550677891778
9	154	37.5	14.437574530322
9	392	38	14.500435655181
9	393	38.5	14.486342127523
9	473	39	14.5276124709
9	474	39.5	14.533853154012
9	475	40	14.481712085273
9	476	40.5	14.444666899104
9	553	41	14.477096496198
9	554	41.5	14.433516102244
9	555	42	14.500294024718
9	556	42.5	14.460819787759
9	557	43	12.996012484405
9	874	43.5	10.757507540396
9	875	44	8.5075075403963
9	876	44.5	6.2575075403963
9	877	45	7.5575075403963
9	1278	45.5	8.5096150686278
9	1279	46	9.460639632406
9	1280	46.5	10.345157276952
9	1281	47	11.201046515362
9	1282	47.5	12.154825661761
9	1283	48	13.017918653771
9	1284	48.5	14.03233964305
9	1285	49	14.501747551862
9	1286	49.5	14.491342554851
9	1287	50	14.506633412178
9	1288	50.5	14.548575382772
9	1289	51	14.54822373191
9	1290	51.5	14.527033428179
9	1291	52	14.512090891599
9	1292	52.5	14.554619557992
9	1293	53	14.447408475936
9	1294	53.5	14.53172453887
9	1295	54	14.480762663406
9	1296	54.5	14.438121919028
9	1297	55	14.558232903694
9	1298	55.5	14.542846894631
9	1299	56	14.554609659483
9	1300	56.5	14.477540882199
9	1301	57	14.552038549333
9	1302	57.5	14.437921243931
9	1304	58	14.543844697994
9	1306	58.5	14.561337858656
9	1308	59	14.44387854241
9	1309	59.5	14.43810947138
9	1310	60	14.526182060141
9	1312	60.5	14.466360179844
9	1313	61	14.437450976564
9	1314	61.5	14.505227556291
9	1315	62	14.526362177435
9	1316	62.5	14.55133236068
9	1317	63	14.49503661455
9	1318	63.5	14.529871659581
9	1319	64	14.439649571012
9	1320	64.5	14.483768474983
9	1321	65	14.506621771868
9	1322	65.5	14.494738701437
9	1323	66	14.441553623079
9	1324	66.5	14.514941137514
9	1325	67	14.443122876046
9	1326	67.5	14.512384618378
9	1327	68	14.53218452505
9	1328	68.5	14.500015057576
9	1329	69	14.513352883699
9	1330	69.5	14.535425908015
9	1331	70	14.492530892446
9	1332	70.5	14.489375022831
9	1333	71	14.46081409977
9	1334	71.5	14.521259556375
9	1335	72	14.449552068493
9	1336	72.5	14.556927578434
9	1337	73	14.549219611652
9	1338	73.5	14.520987667976
9	1339	74	14.433452759012
9	1340	74.5	14.503778542193
9	1341	75	14.55948699579
9	1342	75.5	14.555067569613
9	1343	76	14.548701224426
9	1344	76.5	14.475711396035
9	1345	77	14.512918735511
9	1346	77.5	14.480927313579
9	1347	78	14.497250521359
10	3	1	2.1311671961367
10	4	1.5	3.1435446060073
10	5	2	4.0758362758249
10	6	2.5	4.9786327199658
10	7	3	5.9862471878199
10	8	3.5	6.8543556765883
10	9	4	7.8430037378912
10	10	4.5	8.8951558063409
10	11	5	9.8639746389535
10	12	5.5	10.884495384309
10	13	6	11.750328246459
10	14	6.5	12.627083729126
10	15	7	13.680306829451
10	16	7.5	14.66311544073
10	17	8	15.631815495721
10	18	8.5	15.944889718909
10	19	9	15.933076143798
10	20	9.5	16.02704194391
10	21	10	16.012680860139
10	22	10.5	16.046975723119
10	23	11	15.991224413538
10	24	11.5	15.957330957596
10	25	12	16.006943297596
10	26	12.5	16.009157720807
10	27	13	15.938132288733
10	28	13.5	15.992241283309
10	29	14	16.031916167154
10	30	14.5	15.994183716753
10	31	15	16.050449797989
10	32	15.5	15.941528713664
10	33	16	16.035602408029
10	34	16.5	15.973466740693
10	35	17	16.029840288526
10	36	17.5	15.964652343749
10	37	18	16.008472060718
10	38	18.5	15.930056551905
10	39	19	16.034577265534
10	40	19.5	15.948862201169
10	41	20	15.927917716687
10	42	20.5	16.009976792937
10	43	21	15.924553301391
10	44	21.5	15.971704688843
10	45	22	15.946442086124
10	46	22.5	16.03932738042
10	47	23	15.927726235763
10	48	23.5	15.9891791369
10	49	24	15.975600421213
10	50	24.5	16.029597706406
10	51	25	15.938564928819
10	52	25.5	16.017461132803
10	53	26	15.986677580064
10	54	26.5	15.991367802329
10	55	27	15.941091452837
10	56	27.5	15.935278603801
10	57	28	15.940887910151
10	58	28.5	16.015791453997
10	59	29	16.044431088586
10	60	29.5	15.951873005662
10	61	30	16.049907877285
10	62	30.5	15.949109528975
10	63	31	15.976399861407
10	64	31.5	16.039754499081
10	65	32	15.938170450274
10	66	32.5	16.040572454352
10	67	33	15.990110049562
10	68	33.5	16.007202510792
10	147	34	16.044637274847
10	148	34.5	15.966868247155
10	149	35	15.996379570738
10	150	35.5	15.960602580668
10	151	36	15.972599685637
10	152	36.5	15.933823426839
10	153	37	15.944410204946
10	154	37.5	15.951852494351
10	392	38	16.025625474553
10	393	38.5	16.007644835604
10	473	39	15.980006347718
10	474	39.5	16.047505428088
10	475	40	16.038682358186
10	476	40.5	16.017372143357
10	553	41	15.98595333556
10	554	41.5	15.999757634413
10	555	42	15.967693241095
10	556	42.5	16.016159347687
10	557	43	15.95098133998
10	874	43.5	15.98331078985
10	875	44	15.949522169975
10	876	44.5	15.938722888315
10	877	45	15.994377072174
10	1278	45.5	15.960719714193
10	1279	46	16.036747667473
10	1280	46.5	16.003411920378
10	1281	47	15.926190744492
10	1282	47.5	16.028492913561
10	1283	48	15.954295847065
10	1284	48.5	15.930087008821
10	1285	49	16.050765266624
10	1286	49.5	15.946540788627
10	1287	50	16.047154875864
10	1288	50.5	16.044851440415
10	1289	51	15.954742200878
10	1290	51.5	15.988267603103
10	1291	52	15.933767139437
10	1292	52.5	16.010416099606
10	1293	53	16.041816550598
10	1294	53.5	15.990570030597
10	1295	54	16.027989416488
10	1296	54.5	15.979148138783
10	1297	55	15.950659864785
10	1298	55.5	15.991674751526
10	1299	56	15.997690081024
10	1300	56.5	15.981501906892
10	1301	57	16.04799563116
10	1302	57.5	15.963222563442
10	1304	58	16.038185222203
10	1306	58.5	15.936626598835
10	1308	59	15.984057411778
10	1309	59.5	16.003633745774
10	1310	60	15.963876459068
10	1312	60.5	16.045317722033
10	1313	61	16.015014840826
10	1314	61.5	15.959403668982
10	1315	62	16.044345152635
10	1316	62.5	15.946472504267
10	1317	63	16.002355689335
10	1318	63.5	16.018551534675
10	1319	64	15.939434887635
10	1320	64.5	15.991640690449
10	1321	65	15.997804384644
10	1322	65.5	16.016177602611
10	1323	66	16.00453357809
10	1324	66.5	15.995890068007
10	1325	67	16.023923876675
10	1326	67.5	15.991254406113
10	1327	68	15.994018678272
10	1328	68.5	15.988070448595
10	1329	69	15.93676252109
10	1330	69.5	15.967154056163
10	1331	70	16.011636202936
10	1332	70.5	15.970438039953
10	1333	71	15.987461896255
10	1334	71.5	15.977461426335
10	1335	72	16.03284261765
10	1336	72.5	16.021682521042
10	1337	73	16.033256374903
10	1338	73.5	15.99625723908
10	1339	74	16.00028482378
10	1340	74.5	15.96132482237
10	1341	75	15.962744717002
10	1342	75.5	16.0086616574
10	1343	76	15.938323096014
10	1344	76.5	15.961653459515
10	1345	77	15.955640514649
10	1346	77.5	16.032175811548
10	1347	78	15.926918053932
11	3	1	2.1601955810489
11	4	1.5	3.1144628968242
11	5	2	4.1105820955232
11	6	2.5	5.2289444127435
11	7	3	6.0858094900696
11	8	3.5	7.0473769874488
11	9	4	8.1433097840416
11	10	4.5	9.173221089911
11	11	5	10.05867896536
11	12	5.5	11.148680243594
11	13	6	12.171584089579
11	14	6.5	13.106705217048
11	15	7	13.99409036707
11	16	7.5	14.543085340356
11	17	8	14.602687780525
11	18	8.5	14.517289030695
11	19	9	14.570008487972
11	20	9.5	14.575677133071
11	21	10	14.560443590894
11	22	10.5	14.61913622578
11	23	11	14.54825024424
11	24	11.5	14.519225431246
11	25	12	14.543037858788
11	26	12.5	14.612220510697
11	27	13	14.538531441971
11	28	13.5	14.588886783152
11	29	14	14.586384882714
11	30	14.5	14.525227403968
11	31	15	14.635057979818
11	32	15.5	14.556876347599
11	33	16	14.55173467303
11	34	16.5	14.521861440282
11	35	17	14.524333486348
11	36	17.5	14.61959528806
11	37	18	14.517940223239
11	38	18.5	14.534069228821
11	39	19	14.557720358247
11	40	19.5	14.618730225999
11	41	20	14.640260186026
11	42	20.5	14.559702563066
11	43	21	14.570991012117
11	44	21.5	14.576682747238
11	45	22	14.547124937753
11	46	22.5	14.542483149316
11	47	23	14.608776330758
11	48	23.5	14.563148345725
11	49	24	14.584590232608
11	50	24.5	14.596463933828
11	51	25	14.632218628198
11	52	25.5	14.640536238936
11	53	26	14.56424671979
11	54	26.5	14.59985831915
11	55	27	12.99679047554
11	56	27.5	11.634470266352
11	57	28	11.410184876751
11	58	28.5	9.1768068300144
11	59	29	8.6692932682091
11	60	29.5	8.6545815453751
11	61	30	8.7020650549073
11	62	30.5	8.6871573199102
11	63	31	8.6874157221059
11	64	31.5	8.6518976251481
11	65	32	8.7110292333926
11	66	32.5	8.774150936534
11	67	33	8.7104188366423
11	68	33.5	8.6722553810503
11	147	34	8.7317063623786
11	148	34.5	8.6881515744424
11	149	35	8.7715638518802
11	150	35.5	8.7794007455933
11	151	36	8.7632931033967
11	152	36.5	8.7074452181233
11	153	37	8.693996891219
11	154	37.5	8.7769655293066
11	392	38	8.6914618702515
11	393	38.5	8.7105710856596
11	473	39	8.6624263996587
11	474	39.5	8.6731065072774
11	475	40	8.6904158540469
11	476	40.5	8.6650666580468
11	553	41	8.6606381080093
11	554	41.5	8.6934913809624
11	555	42	8.6606514358803
11	556	42.5	8.7544216800577
11	557	43	8.7445978709499
11	874	43.5	8.7012716774506
11	875	44	8.7185145582704
11	876	44.5	8.667836338247
11	877	45	8.6909460607383
11	1278	45.5	8.7075279357404
11	1279	46	8.7485729695743
11	1280	46.5	8.7242872684801
11	1281	47	8.7322103780022
11	1282	47.5	8.7531157424467
11	1283	48	8.7799054334385
11	1284	48.5	8.7732399426869
11	1285	49	8.6577463098129
11	1286	49.5	8.7618389691369
11	1287	50	8.7209031851383
11	1288	50.5	8.6769899024165
11	1289	51	8.6641497856428
11	1290	51.5	8.6936713287866
11	1291	52	8.6623799932099
11	1292	52.5	8.7401000922525
11	1293	53	8.7784088976987
11	1294	53.5	8.7419353317845
11	1295	54	8.7384252621073
11	1296	54.5	8.6676370343196
11	1297	55	8.7160342569442
11	1298	55.5	8.715332665907
11	1299	56	8.780635785356
11	1300	56.5	8.6968886990406
11	1301	57	8.6968477597766
11	1302	57.5	8.6854054624381
11	1304	58	8.779265278145
11	1306	58.5	8.7618051253239
11	1308	59	8.6807704321763
11	1309	59.5	7.8473887787453
11	1310	60	7.0173887787453
11	1312	60.5	8.2610976064714
11	1313	61	8.744770626738
11	1314	61.5	8.7614393422499
11	1315	62	8.7142987736038
11	1316	62.5	8.7401116884619
11	1317	63	8.6869030514129
11	1318	63.5	8.7490637344195
11	1319	64	8.7702039589852
11	1320	64.5	8.7444894748836
11	1321	65	8.7359588133779
11	1322	65.5	8.7609916175695
11	1323	66	8.7728298290635
11	1324	66.5	8.7583424186244
11	1325	67	8.7032469455435
11	1326	67.5	8.7681611490066
11	1327	68	8.7772734280399
11	1328	68.5	8.7244816663003
11	1329	69	8.6597574304536
11	1330	69.5	8.7010967854995
11	1331	70	7.0643598282226
11	1332	70.5	6.9443598282226
11	1333	71	8.1501582665794
11	1334	71.5	8.7750914363077
11	1335	72	8.7280203766029
11	1336	72.5	8.6893657501208
11	1337	73	8.741511089702
11	1338	73.5	8.6624551426808
11	1339	74	8.6534976375897
11	1340	74.5	8.663464951718
11	1341	75	8.7583733426969
11	1342	75.5	8.7149393940557
11	1343	76	8.6982197976395
11	1344	76.5	8.7566471239322
11	1345	77	8.7052524003808
11	1346	77.5	8.7195255860177
11	1347	78	8.774701562885
12	4	1.5	0.90630194198784
12	5	2	0.91340702508576
12	6	2.5	0.96825475567952
12	7	3	1.001690817643
12	8	3.5	0.73637216261588
12	9	4	0.8844090156164
12	10	4.5	0.85604035260156
12	11	5	0.94190141592175
12	12	5.5	0.87370130069554
12	13	6	0.89731501227245
12	14	6.5	0.7596429517027
12	15	7	0.97169857121073
12	16	7.5	0.99587312475778
12	17	8	0.86374559696764
12	18	8.5	0.76456936011091
12	19	9	0.79889440412633
12	20	9.5	0.93416607781313
12	21	10	0.87777238251641
12	22	10.5	0.92371814771554
12	23	11	0.93108706858008
12	24	11.5	0.90864346138201
12	25	12	0.79313572201877
12	26	12.5	0.87431033494881
12	27	13	0.97034959137439
12	28	13.5	0.98360280549153
12	29	14	0.89162361418827
12	30	14.5	0.97794342010281
12	31	15	0.84577668593264
12	32	15.5	0.80947559558786
12	33	16	1.0745330942888
12	34	16.5	0.9206899466738
12	35	17	0.79484071819111
12	36	17.5	0.83752169860526
12	37	18	0.95642699377611
12	38	18.5	0.78657678823919
12	39	19	0.93948051857763
12	40	19.5	0.93209200378508
12	41	20	0.87385098310188
12	42	20.5	0.89886402189732
12	43	21	0.95356077823789
12	44	21.5	1.0006243242603
12	45	22	0.88197967979127
12	46	22.5	0.91466382066721
12	47	23	0.94967480415479
12	48	23.5	0.93209277768621
12	49	24	1.017909029983
12	50	24.5	0.86894239252434
12	51	25	0.045670057566518
12	52	25.5	-0.032370122848079
12	53	26	0.00031983995810236
12	54	26.5	0.10785632573068
12	55	27	-0.093922081505873
12	56	27.5	0.087237272188062
12	57	28	-0.031144870296117
12	58	28.5	-0.065310813691468
12	59	29	-0.010498828031125
12	60	29.5	0.089619583887981
12	61	30	-0.057115693129596
12	62	30.5	0.073525148844347
12	63	31	-0.032208579517906
12	64	31.5	0.00998458695598
12	65	32	-0.035178750464688
12	66	32.5	0.032724588727575
12	67	33	0.034478072002528
12	68	33.5	-0.10415120808408
12	147	34	0.070024223774674
12	148	34.5	0.028775167912244
12	149	35	-0.042427636412903
12	150	35.5	0.031784353768451
12	151	36	-0.083172300886361
12	152	36.5	-0.013512681350115
12	153	37	0.01004345937632
12	154	37.5	-0.0014938846137369
12	392	38	0.03805619135499
12	393	38.5	0.013729243716227
12	473	39	-0.016923201614993
12	474	39.5	-0.01527198068797
12	475	40	0.027741732001303
12	476	40.5	-0.05755414450541
12	553	41	0.070228263549502
12	554	41.5	0.040315422685815
12	555	42	-0.026501040263099
12	556	42.5	-0.0074193552229573
12	557	43	-0.071510526426131
12	874	43.5	0.1008080884628
12	875	44	0.00057120641693587
12	876	44.5	-0.10130424552597
12	877	45	0.061024606917051
12	1278	45.5	-0.053906034976244
12	1279	46	0.017753971852365
12	1280	46.5	0.016496377000585
12	1281	47	0.057018722891804
12	1282	47.5	0.0016993884555987
12	1283	48	-0.095641259523106
12	1284	48.5	0.052022077376023
12	1285	49	-0.031968642957509
12	1286	49.5	-0.01582451029681
12	1287	50	0.074014492649589
12	1288	50.5	-1.2524829215399
12	1289	51	-3.9269078865272
12	1290	51.5	-4
12	1291	52	-4
12	1292	52.5	-3.9983241379949
12	1293	53	-4
12	1294	53.5	-4
12	1295	54	-3.9921174668951
12	1296	54.5	-2.9549593880111
12	1297	55	1.2
12	1298	55.5	1.0215777593572
12	1299	56	1.0088836780563
12	1300	56.5	0.90274362551048
12	1301	57	0.99494055557995
12	1302	57.5	0.9381258841697
12	1304	58	0.92694339735433
12	1306	58.5	0.78074623195454
12	1308	59	0.90732718035578
12	1309	59.5	0.90303010798059
12	1310	60	1.0562915761024
12	1312	60.5	0.75137827154249
12	1313	61	1.0388067900203
12	1314	61.5	0.86588126133195
12	1315	62	0.97670254024677
12	1316	62.5	0.81147551164962
12	1317	63	0.74348319341428
12	1318	63.5	0.80345701128244
12	1319	64	0.88354997791349
12	1320	64.5	0.89949513201601
12	1321	65	0.89331488105468
12	1322	65.5	0.92060142092408
12	1323	66	0.74028544856414
12	1324	66.5	0.043641303470359
12	1325	67	-0.067597427330909
12	1326	67.5	0.067226828355345
12	1327	68	0.0086097696237246
12	1328	68.5	0.018869787314905
12	1329	69	-0.026151802176607
12	1330	69.5	-0.061621971130371
12	1331	70	0.013273919904606
12	1332	70.5	-0.020581107269976
12	1333	71	0.049931956361981
12	1334	71.5	0.00047985498792968
12	1335	72	0.023142412444578
12	1336	72.5	-0.036671611340715
12	1337	73	0.0069056729413575
12	1338	73.5	-0.010973366098476
12	1339	74	0.068026419226079
12	1340	74.5	-0.044720858233049
12	1341	75	0.032203694712365
12	1342	75.5	-0.053736143549898
12	1343	76	0.0040387512836588
12	1344	76.5	0.025087256832045
12	1345	77	-0.044583907546475
12	1346	77.5	-0.028250285396354
12	1347	78	0.0026421977765878
13	4	1.5	1.4879334530051
13	5	2	1.6132692118776
13	6	2.5	1.774955217919
13	7	3	1.9399645462544
13	8	3.5	1.8412670129931
13	9	4	2.0734096271212
13	10	4.5	2.1590699722102
13	11	5	2.3759099330688
13	12	5.5	2.4166726257484
13	13	6	2.5672189760482
13	14	6.5	2.4775098225192
13	15	7	2.917777159353
13	16	7.5	3.1040721566467
13	17	8	3.0036717065378
13	18	8.5	2.9251724004981
13	19	9	3.0912608129898
13	20	9.5	3.4895749885006
13	21	10	3.4973498690651
13	22	10.5	3.7321536620711
13	23	11	3.8877343570021
13	24	11.5	3.9686114283298
13	25	12	3.7884802178906
13	26	12.5	4.125769287589
13	27	13	4.5381993626689
13	28	13.5	4.7349194209254
13	29	14	4.6022211168677
13	30	14.5	5.0249056725594
13	31	15	4.7360653077296
13	32	15.5	4.7375822630564
13	33	16	5.8198207003021
13	34	16.5	5.436646094345
13	35	17	5.1054553725593
13	36	17.5	5.3952794666825
13	37	18	6.0123039844926
13	38	18.5	5.4726451858172
13	39	19	6.2492831936675
13	40	19.5	6.3846666731497
13	41	20	6.2900284828632
13	42	20.5	6.5584059619124
13	43	21	6.979394747501
13	44	21.5	7.3889868488056
13	45	22	6.9969201746262
13	46	22.5	7.3268128966839
13	47	23	7.6848236919857
13	48	23.5	7.7809399716037
13	49	24	8.4341171123639
13	50	24.5	7.8241302729532
13	51	25	3.4322488973582
13	52	25.5	3.0122184874303
13	53	26	3.186867571593
13	54	26.5	3.7726616397231
13	55	27	2.6845802681854
13	56	27.5	3.6615635820428
13	57	28	3.024992586619
13	58	28.5	2.8366842640672
13	59	29	3.1285514041701
13	60	29.5	3.6725279413924
13	61	30	2.8823434043574
13	62	30.5	3.5880561904034
13	63	31	3.0191254708464
13	64	31.5	3.2457905438584
13	65	32	3.0010149873039
13	66	32.5	3.3672386895244
13	67	33	3.3799531015792
13	68	33.5	2.6292813398718
13	147	34	3.5668582032497
13	148	34.5	3.348900384219
13	149	35	2.9639505719801
13	150	35.5	3.3639873125314
13	151	36	2.7417694941054
13	152	36.5	3.1127394693344
13	153	37	3.2395006499856
13	154	37.5	3.1777235201955
13	392	38	3.3927034619221
13	393	38.5	3.2639172978825
13	473	39	3.0984388906559
13	474	39.5	3.1058859110401
13	475	40	3.3384393712484
13	476	40.5	2.8773534054774
13	553	41	3.5669414912943
13	554	41.5	3.4108410964988
13	555	42	3.0507042290268
13	556	42.5	3.1521375792444
13	557	43	2.803236763137
13	874	43.5	3.7342669400939
13	875	44	3.1976544508641
13	876	44.5	2.6440899706511
13	877	45	3.5173044007663
13	1278	45.5	2.8978934453624
13	1279	46	3.282426432984
13	1280	46.5	3.2772602153036
13	1281	47	3.4995868672501
13	1282	47.5	3.203581931079
13	1283	48	2.6746993826238
13	1284	48.5	3.4686986796227
13	1285	49	3.0166345024951
13	1286	49.5	3.1014917908717
13	1287	50	3.588985168624
13	1288	50.5	0.973
13	1289	51	0.973
13	1290	51.5	0.973
13	1291	52	0.973
13	1292	52.5	0.973
13	1293	53	0.973
13	1294	53.5	0.973
13	1295	54	0.973
13	1296	54.5	0.973
13	1297	55	3.4141109847635
13	1298	55.5	3.2814462077323
13	1299	56	3.4141177357999
13	1300	56.5	3.3435861168832
13	1301	57	3.679177319692
13	1302	57.5	3.6990161743689
13	1304	58	3.8115514250171
13	1306	58.5	3.574623113366
13	1308	59	4.0149528377421
13	1309	59.5	4.1384960828087
13	1310	60	4.7207339469757
13	1312	60.5	3.9785647360438
13	1313	61	4.9749082827248
13	1314	61.5	4.5900284212514
13	1315	62	5.0932048256648
13	1316	62.5	4.6837289706416
13	1317	63	4.5638263400446
13	1318	63.5	4.8868280087037
13	1319	64	5.3077140996744
13	1320	64.5	5.512692705609
13	1321	65	5.6375643270517
13	1322	65.5	5.8985598466001
13	1323	66	5.3036540326375
13	1324	66.5	2.514788980006
13	1325	67	2.0647401202388
13	1326	67.5	2.6094065056249
13	1327	68	2.3747387509071
13	1328	68.5	2.4171439437234
13	1329	69	2.2347809077138
13	1330	69.5	2.0890507257155
13	1331	70	2.3898942255788
13	1332	70.5	2.2530012219597
13	1333	71	2.5387956980115
13	1334	71.5	2.3404924317023
13	1335	72	2.4328959802351
13	1336	72.5	2.1907045674063
13	1337	73	2.3658448702598
13	1338	73.5	2.2934812052513
13	1339	74	2.6149675009965
13	1340	74.5	2.1595332568503
13	1341	75	2.4702445015425
13	1342	75.5	2.1221636836329
13	1343	76	2.3540238992753
13	1344	76.5	2.440056399455
13	1345	77	2.1579706680055
13	1346	77.5	2.2217514788076
13	1347	78	2.3455950904705
14	4	1.5	1.9930402421779
14	5	2	1.9030948903272
14	6	2.5	1.9100973012391
14	7	3	1.9492083071079
14	8	3.5	1.9791114867572
14	9	4	1.8300033096923
14	10	4.5	1.8169069424755
14	11	5	-0.053776765498334
14	12	5.5	0.034887559618802
14	13	6	-0.037924344786443
14	14	6.5	-0.050573050463573
14	15	7	-0.083039860227146
14	16	7.5	0.0050489223888164
14	17	8	0.13380196348764
14	18	8.5	0.030713505875319
14	19	9	-0.0046724653104313
14	20	9.5	0.004297786415556
14	21	10	-0.0081039764639002
14	22	10.5	-0.065722979181448
14	23	11	-0.0098529954953115
14	24	11.5	1.3213580958126
14	25	12	1.9913192673959
14	26	12.5	1.8415240229014
14	27	13	1.8280035374267
14	28	13.5	1.9531398716243
14	29	14	1.7038612716133
14	30	14.5	-0.25180587678362
14	31	15	-4.4577341403393
14	32	15.5	-2.1688007614607
14	33	16	-3.604630530593
14	34	16.5	-0.098657931257041
14	35	17	-0.13471725054551
14	36	17.5	0.13723278804217
14	37	18	0.10267907205504
14	38	18.5	-0.22413767249789
14	39	19	0.012734085544945
14	40	19.5	0.029065674166194
14	41	20	0.16471769696567
14	42	20.5	-0.02431064663455
14	43	21	-0.084490675632843
14	44	21.5	0.038211546423845
14	45	22	-0.14556398450397
14	46	22.5	0.17454274808988
14	47	23	-0.014719062577932
14	48	23.5	-0.1408049145015
14	49	24	0.098071262547748
14	50	24.5	-0.040684018572794
14	51	25	-0.043725382015108
14	52	25.5	0.13245049172081
14	53	26	-0.12678983606864
14	54	26.5	-3.5399214311054
14	55	27	1.18
14	56	27.5	2.3312722031167
14	57	28	2.2006176775228
14	58	28.5	2.0071128195431
14	59	29	1.8395591145102
14	60	29.5	1.8067059491901
14	61	30	2.1991573502822
14	62	30.5	1.8277500114438
14	63	31	-0.12934605978895
14	64	31.5	0.093890078575349
14	65	32	-0.21334078240208
14	66	32.5	0.21031422212254
14	67	33	0.015202338458039
14	68	33.5	-0.14310495848302
14	147	34	0.023895786507055
14	148	34.5	0.020591176599265
14	149	35	0.016138664851898
14	150	35.5	-0.10109313274268
14	151	36	0.15583190144971
14	152	36.5	-0.16220935047604
14	153	37	0.19523565362673
14	154	37.5	-0.22620672291145
14	392	38	0.12572224971839
14	393	38.5	-0.028187055317687
14	473	39	0.082540686754509
14	474	39.5	0.012481366223657
14	475	40	-0.10428213747684
14	476	40.5	-0.07409037233796
14	553	41	0.064859194187449
14	554	41.5	-0.08716078790836
14	555	42	0.13355584494769
14	556	42.5	-0.078948473916387
14	557	43	-2.9296146067086
14	874	43.5	-4.4770098880176
14	875	44	-4.5
14	876	44.5	-4.5
14	877	45	2.6
14	1278	45.5	1.9042150564631
14	1279	46	1.9020491275564
14	1280	46.5	1.769035289092
14	1281	47	1.7117784768203
14	1282	47.5	1.9075582927978
14	1283	48	1.7261859840201
14	1284	48.5	2.0288419785583
14	1285	49	0.93881581762386
14	1286	49.5	-0.020809994023292
14	1287	50	0.03058171465527
14	1288	50.5	0.083883941187526
14	1289	51	-0.00070330172311728
14	1290	51.5	-0.042380607463418
14	1291	52	-0.029885073159821
14	1292	52.5	0.085057332785798
14	1293	53	-0.21442216411233
14	1294	53.5	0.16863212586846
14	1295	54	-0.10192375092767
14	1296	54.5	-0.085281488755719
14	1297	55	0.24022196933161
14	1298	55.5	-0.03077201812528
14	1299	56	0.023525529704056
14	1300	56.5	-0.15413755456917
14	1301	57	0.14899533426855
14	1302	57.5	-0.22823461080436
14	1304	58	0.21184690812603
14	1306	58.5	0.034986321325412
14	1308	59	-0.23491863249335
14	1309	59.5	-0.011538142058996
14	1310	60	0.17614517752081
14	1312	60.5	-0.11964376059361
14	1313	61	-0.057818406559527
14	1314	61.5	0.13555315945298
14	1315	62	0.042269242289475
14	1316	62.5	0.049940366488883
14	1317	63	-0.11259149225894
14	1318	63.5	0.069670090060679
14	1319	64	-0.18044417713769
14	1320	64.5	0.088237807941624
14	1321	65	0.045706593771463
14	1322	65.5	-0.023766140863298
14	1323	66	-0.10637015671469
14	1324	66.5	0.14677502886858
14	1325	67	-0.1436365229357
14	1326	67.5	0.13852348466404
14	1327	68	0.039599813343958
14	1328	68.5	-0.064338934947738
14	1329	69	0.026675652246922
14	1330	69.5	0.044146048631521
14	1331	70	-0.085790031137876
14	1332	70.5	-0.0063117392314602
14	1333	71	-0.057121846121738
14	1334	71.5	0.12089091320988
14	1335	72	-0.1434149757633
14	1336	72.5	0.21475101988297
14	1337	73	-0.015415933565237
14	1338	73.5	-0.056463887351562
14	1339	74	-0.1750698179286
14	1340	74.5	0.14065156636294
14	1341	75	0.11141690719407
14	1342	75.5	-0.0088388523552574
14	1343	76	-0.012732690372506
14	1344	76.5	-0.145979656782
14	1345	77	0.074414678951726
14	1346	77.5	-0.063982843863776
14	1347	78	0.032646415559572
15	4	1.5	2.7024978186224
15	5	2	3.1228378106583
15	6	2.5	3.6204637772488
15	7	3	4.1795362644611
15	8	3.5	4.7528987655501
15	9	4	4.9670552711745
15	10	4.5	5.4012137681428
15	11	5	1.4763863221932
15	12	5.5	1.6631169338868
15	13	6	1.5094392617643
15	14	6.5	1.4815608496612
15	15	7	1.4118609613406
15	16	7.5	1.5947617075035
15	17	8	1.8686843153561
15	18	8.5	1.6542968023021
15	19	9	1.5800130897105
15	20	9.5	1.5989493362405
15	21	10	1.5726989615504
15	22	10.5	1.4503109526041
15	23	11	1.5665168497934
15	24	11.5	4.5986223214663
15	25	12	6.6543354336105
15	26	12.5	6.7649307342819
15	27	13	7.2096996505112
15	28	13.5	8.1258220546014
15	29	14	7.7720176419972
15	30	14.5	1.1827992916936
15	31	15	0.973
15	32	15.5	0.973
15	33	16	0.973
15	34	16.5	1.3826954261668
15	35	17	1.304817640411
15	36	17.5	1.8762032725321
15	37	18	1.8087470297667
15	38	18.5	0.973
15	39	19	1.6118519283161
15	40	19.5	1.6469044146001
15	41	20	1.9383301795746
15	42	20.5	1.540200424566
15	43	21	1.4118099234401
15	44	21.5	1.6696313039536
15	45	22	1.2824106146412
15	46	22.5	1.9566670594839
15	47	23	1.559283384157
15	48	23.5	1.2926225771186
15	49	24	1.7936333750039
15	50	24.5	1.5024057383261
15	51	25	1.4947869259891
15	52	25.5	1.8679195817618
15	53	26	1.3221211084191
15	54	26.5	0.973
15	55	27	3.6274655817342
15	56	27.5	6.4275397243869
15	57	28	6.8184352928874
15	58	28.5	6.9280943490295
15	59	29	6.9791268426376
15	60	29.5	7.3604933744918
15	61	30	9.235236049927
15	62	30.5	8.5108373453007
15	63	31	1.6387323372405
15	64	31.5	2.4246313835492
15	65	32	1.3420402189006
15	66	32.5	2.8324141351834
15	67	33	2.1495345190754
15	68	33.5	1.5893367870315
15	147	34	2.1733140479828
15	148	34.5	2.162922425443
15	149	35	2.1482555025508
15	150	35.5	1.7342523722028
15	151	36	2.6405897277459
15	152	36.5	1.5211123520297
15	153	37	2.7811519725819
15	154	37.5	1.2973991722267
15	392	38	2.5305045661397
15	393	38.5	1.9912477542303
15	473	39	2.3830402828993
15	474	39.5	2.1384367678193
15	475	40	1.7252077799887
15	476	40.5	1.8273066437855
15	553	41	2.314963711928
15	554	41.5	1.780858403242
15	555	42	2.5578602432969
15	556	42.5	1.8118017444336
15	557	43	0.973
15	874	43.5	0.973
15	875	44	0.973
15	876	44.5	0.973
15	877	45	6.2499841014219
15	1278	45.5	5.4826258024982
15	1279	46	5.9813031337595
15	1280	46.5	6.1218573400353
15	1281	47	6.4010247361317
15	1282	47.5	7.4500735643962
15	1283	48	7.3573762340637
15	1284	48.5	8.9032937558199
15	1285	49	5.3723819698842
15	1286	49.5	2.0175096719669
15	1287	50	2.1987319426032
15	1288	50.5	2.3904061552008
15	1289	51	2.0937882691089
15	1290	51.5	1.9456156325652
15	1291	52	1.9878764566695
15	1292	52.5	2.3952904708788
15	1293	53	1.3389377007902
15	1294	53.5	2.6850657868486
15	1295	54	1.7333611107744
15	1296	54.5	1.7877890259482
15	1297	55	2.9401514552214
15	1298	55.5	1.9878289114713
15	1299	56	2.1794565078527
15	1300	56.5	1.5509191215168
15	1301	57	2.6191947681999
15	1302	57.5	1.2903609104698
15	1304	58	2.8383236220378
15	1306	58.5	2.2204335570631
15	1308	59	1.2673979973752
15	1309	59.5	2.0443841596734
15	1310	60	2.7105506948298
15	1312	60.5	1.6704050518451
15	1313	61	1.8832874433442
15	1314	61.5	2.5655267404663
15	1315	62	2.2418975553765
15	1316	62.5	2.2717208981589
15	1317	63	1.6972637314037
15	1318	63.5	2.3382574109053
15	1319	64	1.4567576614624
15	1320	64.5	2.3973826858581
15	1321	65	2.2516086434707
15	1322	65.5	2.0075276595656
15	1323	66	1.7146850385602
15	1324	66.5	2.6061346587589
15	1325	67	1.58509473035
15	1326	67.5	2.5769120074714
15	1327	68	2.233229339858
15	1328	68.5	1.86627752514
15	1329	69	2.1858353786294
15	1330	69.5	2.2495320223548
15	1331	70	1.790674430592
15	1332	70.5	2.0679371609537
15	1333	71	1.8878682731073
15	1334	71.5	2.5164473797535
15	1335	72	1.586325670496
15	1336	72.5	2.8505785698394
15	1337	73	2.0423067479373
15	1338	73.5	1.8957470377821
15	1339	74	1.4750647905542
15	1340	74.5	2.5831460453132
15	1341	75	2.4884023381172
15	1342	75.5	2.0659812273044
15	1343	76	2.0516613437178
15	1344	76.5	1.5792525913682
15	1345	77	2.352758961697
15	1346	77.5	1.86578468129
15	1347	78	2.2048770188671
16	4	1.5	2.0247548197413
16	5	2	1.8645833396353
16	6	2.5	1.8055928882817
16	7	3	2.0152289357083
16	8	3.5	1.7362169775367
16	9	4	1.9772961226059
16	10	4.5	2.1043041368993
16	11	5	1.9376376652252
16	12	5.5	2.0410414907103
16	13	6	1.7316657243017
16	14	6.5	1.7535109653324
16	15	7	2.1064462006511
16	16	7.5	1.9656172225578
16	17	8	1.9374001099821
16	18	8.5	0.62614844637606
16	19	9	-0.023627150221728
16	20	9.5	0.18793160022236
16	21	10	-0.028722167541275
16	22	10.5	0.068589725960045
16	23	11	-0.1115026191622
16	24	11.5	-0.067786911884323
16	25	12	0.099224680000916
16	26	12.5	0.0044288464216535
16	27	13	-0.14205086414702
16	28	13.5	0.10821798915043
16	29	14	0.079349767691454
16	30	14.5	-0.075464900801887
16	31	15	0.11253216247075
16	32	15.5	-0.21784216864966
16	33	16	0.18814738872926
16	34	16.5	-0.12427133467048
16	35	17	0.11274709566496
16	36	17.5	-0.13037588955369
16	37	18	0.087639433937149
16	38	18.5	-0.15683101762552
16	39	19	0.20904142725747
16	40	19.5	-0.17143012872897
16	41	20	-0.041888968963178
16	42	20.5	0.16411815249827
16	43	21	-0.17084698309191
16	44	21.5	0.094302774905227
16	45	22	-0.050525205438024
16	46	22.5	0.18577058859169
16	47	23	-0.22320228931494
16	48	23.5	0.12290580227506
16	49	24	-0.027157431375237
16	50	24.5	0.10799457038753
16	51	25	-0.1820655551739
16	52	25.5	0.15779240796808
16	53	26	-0.061567105478609
16	54	26.5	0.0093804445303967
16	55	27	-0.10055269898381
16	56	27.5	-0.011625698073765
16	57	28	0.011218612701629
16	58	28.5	0.14980708769057
16	59	29	0.057279269178402
16	60	29.5	-0.18511616584845
16	61	30	0.19606974324677
16	62	30.5	-0.20159669661894
16	63	31	0.054580664862879
16	64	31.5	0.12670927534812
16	65	32	-0.20316809761338
16	66	32.5	0.20480400815606
16	67	33	-0.10092480957974
16	68	33.5	0.034184922459534
16	147	34	0.074869528110142
16	148	34.5	-0.15553805538453
16	149	35	0.059022647165694
16	150	35.5	-0.071553980140017
16	151	36	0.023994209938682
16	152	36.5	-0.077552517596629
16	153	37	0.021173556214197
16	154	37.5	0.014884578809141
16	392	38	0.14754596040584
16	393	38.5	-0.035961277899332
16	473	39	-0.055276975771413
16	474	39.5	0.13499816074036
16	475	40	-0.01764613980427
16	476	40.5	-0.042620429657404
16	553	41	-0.062837615595196
16	554	41.5	0.027608597707001
16	555	42	-0.064128786637447
16	556	42.5	0.096932213185358
16	557	43	-0.130356015414
16	874	43.5	0.064658899740316
16	875	44	-0.067577239749951
16	876	44.5	-0.021598563320005
16	877	45	0.11130836771801
16	1278	45.5	-0.067314715962855
16	1279	46	0.15205590656027
16	1280	46.5	-0.066671494189649
16	1281	47	-0.15444235177245
16	1282	47.5	0.20460433813743
16	1283	48	-0.14839413299225
16	1284	48.5	-0.048417676487006
16	1285	49	0.24135651560501
16	1286	49.5	-0.2084489559941
16	1287	50	0.20122817447409
16	1288	50.5	-0.0046068708971134
16	1289	51	-0.18021847907454
16	1290	51.5	0.067050804449245
16	1291	52	-0.10900092733092
16	1292	52.5	0.15329792033881
16	1293	53	0.062800901983863
16	1294	53.5	-0.10249304000288
16	1295	54	0.074838771782819
16	1296	54.5	-0.097682555411012
16	1297	55	-0.056976547995582
16	1298	55.5	0.082029773481189
16	1299	56	0.012030658996665
16	1300	56.5	-0.032376348264517
16	1301	57	0.13298744853586
16	1302	57.5	-0.16954613543581
16	1304	58	0.14992531752214
16	1306	58.5	-0.20311724673491
16	1308	59	0.094861625884661
16	1309	59.5	0.039152667992749
16	1310	60	-0.079514573412016
16	1312	60.5	0.16288252593018
16	1313	61	-0.060605762414639
16	1314	61.5	-0.11122234368696
16	1315	62	0.16988296730444
16	1316	62.5	-0.19574529673438
16	1317	63	0.11176637013443
16	1318	63.5	0.032391690681685
16	1319	64	-0.15823329408187
16	1320	64.5	0.10441160562914
16	1321	65	0.012327388389966
16	1322	65.5	0.036746435933743
16	1323	66	-0.023288049041291
16	1324	66.5	-0.017287020166403
16	1325	67	0.056067617335355
16	1326	67.5	-0.065338941123336
16	1327	68	0.0055285443179329
16	1328	68.5	-0.011896459353157
16	1329	69	-0.10261585501023
16	1330	69.5	0.060783070144243
16	1331	70	0.08896429354791
16	1332	70.5	-0.082396325967277
16	1333	71	0.034047712604515
16	1334	71.5	-0.02000093983952
16	1335	72	0.11076238262932
16	1336	72.5	-0.022320193215272
16	1337	73	0.023147707721222
16	1338	73.5	-0.07399827164598
16	1339	74	0.0080551694007589
16	1340	74.5	-0.077920002820903
16	1341	75	0.0028397892648364
16	1342	75.5	0.091833880795168
16	1343	76	-0.14067712277174
16	1344	76.5	0.046660727001726
16	1345	77	-0.01202588973101
16	1346	77.5	0.1530705937976
16	1347	78	-0.21051551523153
17	4	1.5	2.7984568684538
17	5	2	3.1444097541456
17	6	2.5	3.5280106963949
17	7	3	4.3259352163484
17	8	3.5	4.3384594692947
17	9	4	5.2703279254748
17	10	4.5	6.1151855528723
17	11	5	6.2806852194509
17	12	5.5	7.1081769084565
17	13	6	6.7304899914031
17	14	6.5	7.2412740892781
17	15	7	8.9513099409504
17	16	7.5	9.0547083895803
17	17	8	9.5156421158074
17	18	8.5	4.6597810862715
17	19	9	2.1615420551011
17	20	9.5	2.9893392055865
17	21	10	2.1508955436355
17	22	10.5	2.5310910794497
17	23	11	1.8294600174731
17	24	11.5	1.9944571009003
17	25	12	2.6438280591366
17	26	12.5	2.2784031518175
17	27	13	1.7072368803552
17	28	13.5	2.6763856360336
17	29	14	2.5706154503682
17	30	14.5	1.9686439407229
17	31	15	2.7015403788886
17	32	15.5	1.4163403560233
17	33	16	2.9915835300722
17	34	16.5	1.7786689819263
17	35	17	2.6993480398884
17	36	17.5	1.7543976624049
17	37	18	2.599350566667
17	38	18.5	1.6498124028048
17	39	19	3.0721560686166
17	40	19.5	1.5952186805004
17	41	20	2.090859451362
17	42	20.5	2.8946476406373
17	43	21	1.5955773137956
17	44	21.5	2.6198434412076
17	45	22	2.0596801512887
17	46	22.5	2.9830101723249
17	47	23	1.394852632666
17	48	23.5	2.7325389619537
17	49	24	2.1527590572988
17	50	24.5	2.6809528343535
17	51	25	1.5535692012185
17	52	25.5	2.8714179211643
17	53	26	2.0214317352524
17	54	26.5	2.2953468566745
17	55	27	1.8669144647108
17	56	27.5	2.2078811380704
17	57	28	2.2962931261129
17	58	28.5	2.8403333913287
17	59	29	2.4870104636654
17	60	29.5	1.542837195467
17	61	30	3.0245865350905
17	62	30.5	1.4792855239854
17	63	31	2.4675661406151
17	64	31.5	2.7547740711531
17	65	32	1.4724827522418
17	66	32.5	3.0567937273257
17	67	33	1.8701200591093
17	68	33.5	2.3929589674184
17	147	34	2.5550552333022
17	148	34.5	1.6577670743298
17	149	35	2.4873322713943
17	150	35.5	1.9803023516997
17	151	36	2.3493246872899
17	152	36.5	1.9545502412928
17	153	37	2.334973567115
17	154	37.5	2.3117178275866
17	392	38	2.8331294574493
17	393	38.5	2.122402373706
17	473	39	2.0449610131449
17	474	39.5	2.7879944136634
17	475	40	2.1966329459436
17	476	40.5	2.097772949325
17	553	41	2.0164614626763
17	554	41.5	2.3666521460552
17	555	42	2.0095966733201
[...]
96	2616	164	1584.3332198206
96	2617	164.5	1579.5880941506
96	2618	165	1575.0005785692
96	2619	165.5	1570.5844531842
96	2620	166	1566.2874044077
96	2621	166.5	1562.0890333718
96	2622	167	1557.973617536
96	2623	167.5	1553.9001169279
96	2624	168	1549.3387449831
96	2625	168.5	1544.0736458274
96	2626	169	1539.0036578923
96	2627	169.5	1534.8650516039
96	2628	170	1531.0413513463
96	2629	170.5	1527.5150119299
96	2630	171	1524.1133057708
96	2631	171.5	1520.6901774565
96	2632	172	1517.2311389158
96	2633	172.5	1514.0489600999
96	2634	173	1510.9620409729
96	2635	173.5	1507.7571828095
96	2636	174	1504.468159195
96	2637	174.5	1501.6094222991
96	2638	175	1498.8265805123
96	2639	175.5	1495.8217998594
96	2640	176	1492.6536952434
96	2641	176.5	1490.0850475207
96	2642	177	1487.5562707242
96	2643	177.5	1484.0444080085
96	2644	178	1480.9748608842
96	2645	178.5	1477.7919614101
96	2646	179	1474.2780572353
96	2647	179.5	1470.449607267
96	2648	180	1466.2384339469
96	2649	180.5	1461.5403940296
96	2650	181	1456.6475177109
96	2651	181.5	1451.7569304081
96	2652	182	1446.8697445896
96	2653	182.5	1441.9853653209
96	2654	183	1437.0977440495
96	2655	183.5	1432.2054393291
96	2656	184	1427.3129595043
96	2657	184.5	1422.4166218368
96	2658	185	1417.532573482
96	2659	185.5	1412.6486479882
96	2660	186	1407.2615754362
96	2661	186.5	1401.6109215003
96	2662	187	1395.9486166434
96	2663	187.5	1390.2900424832
96	2664	188	1384.9826069921
96	2665	188.5	1379.7807941018
96	2666	189	1374.7194338199
96	2667	189.5	1369.8355353223
96	2668	190	1365.094008524
96	2669	190.5	1360.5123246219
96	2670	191	1356.079503064
96	2671	191.5	1351.8640697831
96	2672	192	1347.8296620501
96	2673	192.5	1343.904550056
96	2674	193	1340.0769989416
96	2675	193.5	1336.3675414482
96	2676	194	1332.7611361379
96	2677	194.5	1329.231009094
96	2678	195	1325.7808515206
96	2679	195.5	1322.4344581859
96	2680	196	1319.0806089919
96	2681	196.5	1315.0906234588
96	2682	197	1310.7391472142
96	2683	197.5	1306.9846465671
96	2684	198	1303.2388054533
96	2685	198.5	1299.4916797811
96	2686	199	1295.7502546869
96	2687	199.5	1292.0458988044
96	2688	200	1288.3441352891
96	2689	200.5	1284.691147116
96	2690	201	1281.0657253247
96	2691	201.5	1277.4629183039
96	2692	202	1273.9056295641
96	2693	202.5	1270.3418752151
96	2694	203	1266.784931452
96	2695	203.5	1263.2930230154
96	2696	204	1259.9449412599
96	2697	204.5	1256.5312487734
96	2698	205	1253.075156617
96	2699	205.5	1249.6887932848
96	2700	206	1246.4677701527
96	2701	206.5	1243.0567869898
96	2702	207	1239.590281019
96	2703	207.5	1236.3471163381
96	2704	208	1233.3277895115
96	2705	208.5	1230.0123940082
96	2706	209	1226.4636036027
96	2707	209.5	1223.4074900858
97	2510	111	14.572408475567
97	2511	111.5	14.65671480002
97	2512	112	14.625437314921
97	2513	112.5	14.647625066215
97	2514	113	14.622171505784
97	2515	113.5	14.576379287761
97	2516	114	14.579303308435
97	2517	114.5	14.556951352361
97	2518	115	14.642653607043
97	2519	115.5	14.63502515958
97	2520	116	14.582228750827
97	2521	116.5	14.628945245409
97	2522	117	14.630098229455
97	2523	117.5	14.653323799627
97	2524	118	14.577350019469
97	2525	118.5	14.622022451825
97	2526	119	14.651979839284
97	2527	119.5	14.628644591166
97	2528	120	14.590444190715
97	2529	120.5	14.616248821862
97	2530	121	14.629872299266
97	2531	121.5	14.616078867315
97	2532	122	14.633652562123
97	2533	122.5	14.639663718181
97	2534	123	14.021273355781
97	2535	123.5	13.629437942298
97	2536	124	13.15943539003
97	2537	124.5	12.816640645856
97	2538	125	12.359607923979
97	2539	125.5	12.029942114492
97	2540	126	11.486963884731
97	2541	126.5	11.274998369126
97	2542	127	11.045659378501
97	2543	127.5	11.023961016102
97	2544	128	10.104373874933
97	2545	128.5	9.7880894242894
97	2546	129	9.8899334915582
97	2547	129.5	10.005232414826
97	2548	130	9.0810457742721
97	2549	130.5	8.7636633092899
97	2550	131	8.9750398654091
97	2551	131.5	9.3601611465311
97	2552	132	7.980778393984
97	2553	132.5	7.7876419405773
97	2554	133	8.457455438178
97	2555	133.5	9.1863940224538
97	2556	134	7.1348427663802
97	2557	134.5	7.0148427663802
97	2558	135	8.2037492915697
97	2559	135.5	9.1976699715515
97	2560	136	10.167103752039
97	2561	136.5	11.130441179388
97	2562	137	12.243167957269
97	2563	137.5	13.058353601136
97	2564	138	14.051497396595
97	2565	138.5	14.627051438206
97	2566	139	14.645382890986
97	2567	139.5	14.576668249996
97	2568	140	14.665648987867
97	2569	140.5	14.658913518233
97	2570	141	14.678337103851
97	2571	141.5	14.641360913218
97	2572	142	14.683334679148
97	2573	142.5	14.664734470706
97	2574	143	14.662640502992
97	2575	143.5	14.619015524933
97	2576	144	14.556507428916
97	2577	144.5	14.642121307472
97	2578	145	14.613438757603
97	2579	145.5	14.573920527553
97	2580	146	14.605955365034
97	2581	146.5	14.630412285483
97	2582	147	14.645977568937
97	2583	147.5	14.664681814554
97	2584	148	14.579115525017
97	2585	148.5	14.676039983091
97	2586	149	14.669554266728
97	2587	149.5	14.630227256935
97	2588	150	14.682821778237
97	2589	150.5	14.620634306582
97	2590	151	14.561666447433
97	2591	151.5	14.593304720662
97	2592	152	14.558276015079
97	2593	152.5	14.6573603267
97	2594	153	14.613898656309
97	2595	153.5	14.59271213211
97	2596	154	14.583370142054
97	2597	154.5	14.671357581286
97	2598	155	14.660964030082
97	2599	155.5	14.631522175305
97	2600	156	14.569097069682
97	2601	156.5	14.594879169153
97	2602	157	14.422946948583
97	2603	157.5	14.277332940013
97	2604	158	14.242451749209
97	2605	158.5	14.201537303371
97	2606	159	14.185530047003
97	2607	159.5	14.081991859225
97	2608	160	13.970110449597
97	2609	160.5	13.893821377642
97	2610	161	13.897031956584
97	2611	161.5	13.886079070906
97	2612	162	13.897789213039
97	2613	162.5	13.80134729955
97	2614	163	13.886559798226
97	2615	163.5	13.820817539936
97	2616	164	13.821916848932
97	2617	164.5	13.767238308908
97	2618	165	13.008382867677
97	2619	165.5	12.663198893206
97	2620	166	12.351654317607
97	2621	166.5	12.056577083024
97	2622	167	11.913787488445
97	2623	167.5	11.573187700046
97	2624	168	11.280368978039
97	2625	168.5	10.874148898132
97	2626	169	10.659088446319
97	2627	169.5	10.61618780517
97	2628	170	10.213414744462
97	2629	170.5	9.3156100603489
97	2630	171	9.3718268194413
97	2631	171.5	9.3661191946822
97	2632	172	9.3304305379246
97	2633	172.5	8.3119592825645
97	2634	173	8.5497207526927
97	2635	173.5	8.9193224113891
97	2636	174	8.8055577154196
97	2637	174.5	7.337047354529
97	2638	175	7.8628128150997
97	2639	175.5	8.5259211190689
97	2640	176	8.4026939571799
97	2641	176.5	6.1700593412146
97	2642	177	7.4700593412146
97	2643	177.5	8.4103419077317
97	2644	178	9.3263891547886
97	2645	178.5	10.422867323059
97	2646	179	11.465196342158
97	2647	179.5	12.46134118471
97	2648	180	13.382551754996
97	2649	180.5	14.470177416358
97	2650	181	14.648807114578
97	2651	181.5	14.647155426244
97	2652	182	14.594482006569
97	2653	182.5	14.624064462698
97	2654	183	14.611190729727
97	2655	183.5	14.668546175914
97	2656	184	14.580692609249
97	2657	184.5	14.572856985853
97	2658	185	14.553845068574
97	2659	185.5	14.565073580298
97	2660	186	14.624697435611
97	2661	186.5	14.558830439971
97	2662	187	14.648773211621
97	2663	187.5	14.643802295154
97	2664	188	14.680255767334
97	2665	188.5	14.467713244016
97	2666	189	14.001085562876
97	2667	189.5	13.45200493346
97	2668	190	13.075765508415
97	2669	190.5	12.592979678122
97	2670	191	12.142053651385
97	2671	191.5	11.663195720745
97	2672	192	11.239764563619
97	2673	192.5	10.899875601474
97	2674	193	10.636036842821
97	2675	193.5	10.171802757361
97	2676	194	9.9896067459747
97	2677	194.5	9.7827154318212
97	2678	195	9.5967019905961
97	2679	195.5	9.2908040728188
97	2680	196	9.1494941472981
97	2681	196.5	9.1239326345566
97	2682	197	9.0494476853284
97	2683	197.5	8.7578759022218
97	2684	198	8.7742255530504
97	2685	198.5	8.8048760703134
97	2686	199	8.7174306760808
97	2687	199.5	8.6280978136274
97	2688	200	8.5659716419301
97	2689	200.5	8.546132630859
97	2690	201	8.4154428907986
97	2691	201.5	8.3001400550359
97	2692	202	8.3388669189856
97	2693	202.5	8.3968322769707
97	2694	203	8.3072927424936
97	2695	203.5	7.9864542039802
97	2696	204	7.855198841344
97	2697	204.5	8.0929894362492
97	2698	205	8.0526613231277
97	2699	205.5	7.6176725879194
97	2700	206	7.7005180778163
97	2701	206.5	8.0516570228071
97	2702	207	8.1358285571645
97	2703	207.5	6.9875268486681
97	2704	208	7.2835833996333
97	2705	208.5	8.0209108803053
97	2706	209	8.3123612000548
97	2707	209.5	6.2793183604373
100	2510	111	-0.17735255564563
100	2511	111.5	0.16861264890526
100	2512	112	-0.062554970197379
100	2513	112.5	0.044375502588228
100	2514	113	-0.050907120862977
100	2515	113.5	-0.091584436045959
100	2516	114	0.0058480413490898
100	2517	114.5	-0.04470391214825
100	2518	115	0.17140450936276
100	2519	115.5	-0.015256894924676
100	2520	116	-0.10559281750582
100	2521	116.5	0.093432989162395
100	2522	117	0.0023059680918216
100	2523	117.5	0.046451140344143
100	2524	118	-0.15194756031502
100	2525	118.5	0.089344864711165
100	2526	119	0.059914774917996
100	2527	119.5	-0.046670496235599
100	2528	120	-0.076400800901467
100	2529	120.5	0.051609262293205
100	2530	121	0.027246954808945
100	2531	121.5	-0.0275868639024
100	2532	122	0.035147389615886
100	2533	122.5	0.012022312115878
100	2534	123	-1.2367807248009
100	2535	123.5	-0.78367082696489
100	2536	124	-0.94000510453711
100	2537	124.5	-0.68558948834763
100	2538	125	-0.91406544375336
100	2539	125.5	-0.6593316189736
100	2540	126	-1.0859564595233
100	2541	126.5	-0.42393103120818
100	2542	127	-0.45867798125091
100	2543	127.5	-0.043396724797642
100	2544	128	-1.8391742823389
100	2545	128.5	-0.63256890128658
100	2546	129	0.20368813453744
100	2547	129.5	0.23059784653622
100	2548	130	-1.8483732811083
100	2549	130.5	-0.63476492996442
100	2550	131	0.4227531122385
100	2551	131.5	0.77024256224395
100	2552	132	-2.7587655050943
100	2553	132.5	-0.3862729068134
100	2554	133	1.3396269952014
100	2555	133.5	1.4578771685517
100	2556	134	-4.1031025121474
100	2557	134.5	-0.24
100	2558	135	2.377813050379
100	2559	135.5	1.9878413599636
100	2560	136	1.9388675609743
100	2561	136.5	1.9266748546995
100	2562	137	2.2254535557609
100	2563	137.5	1.6303712877352
100	2564	138	1.9862875909172
100	2565	138.5	1.1511080832221
100	2566	139	0.036662905560807
100	2567	139.5	-0.13742928198073
100	2568	140	0.17796147574205
100	2569	140.5	-0.013470939267428
100	2570	141	0.03884717123583
100	2571	141.5	-0.073952381266281
100	2572	142	0.083947531860321
100	2573	142.5	-0.037200416885316
100	2574	143	-0.0041879354277619
100	2575	143.5	-0.087249956117013
100	2576	144	-0.12501619203482
100	2577	144.5	0.17122775711119
100	2578	145	-0.057365099736487
100	2579	145.5	-0.079036460099744
100	2580	146	0.064069674960336
100	2581	146.5	0.048913840898315
100	2582	147	0.031130566908978
100	2583	147.5	0.037408491233364
100	2584	148	-0.17113257907331
100	2585	148.5	0.19384891614784
100	2586	149	-0.012971432725898
100	2587	149.5	-0.078654019585812
100	2588	150	0.1051890426036
100	2589	150.5	-0.1243749433104
100	2590	151	-0.11793571829796
100	2591	151.5	0.063276546457782
100	2592	152	-0.070057411165909
100	2593	152.5	0.19816862324253
100	2594	153	-0.086923340782526
100	2595	153.5	-0.04237304839771
100	2596	154	-0.018683980111966
100	2597	154.5	0.17597487846389
100	2598	155	-0.020787102407773
100	2599	155.5	-0.05888370955363
100	2600	156	-0.12485021124612
100	2601	156.5	0.051564198941286
100	2602	157	-0.34386444114033
100	2603	157.5	-0.29122801713839
100	2604	158	-0.069762381608587
100	2605	158.5	-0.081828891676619
100	2606	159	-0.032014512735618
100	2607	159.5	-0.20707637555628
100	2608	160	-0.22376281925656
100	2609	160.5	-0.15257814390917
100	2610	161	0.0064211578843185
100	2611	161.5	-0.021905771356014
100	2612	162	0.02342028426601
100	2613	162.5	-0.19288382697765
100	2614	163	0.17042499735126
100	2615	163.5	-0.13148451658063
100	2616	164	0.0021986179920575
100	2617	164.5	-0.10935708004757
100	2618	165	-1.5177108824616
100	2619	165.5	-0.69036794894305
100	2620	166	-0.62308915119817
100	2621	166.5	-0.59015446916557
100	2622	167	-0.28557918915826
100	2623	167.5	-0.6811995767975
100	2624	168	-0.58563744401311
100	2625	168.5	-0.81244015981475
100	2626	169	-0.43012090362525
100	2627	169.5	-0.085801282298668
100	2628	170	-0.80554612141542
100	2629	170.5	-1.7956093682267
100	2630	171	0.11243351818471
100	2631	171.5	-0.011415249518212
100	2632	172	-0.071377313515214
100	2633	172.5	-2.0369425107201
100	2634	173	0.47552294025627
100	2635	173.5	0.73920331739294
100	2636	174	-0.2275293919391
100	2637	174.5	-2.9370207217812
100	2638	175	1.0515309211414
100	2639	175.5	1.3262166079384
100	2640	176	-0.24645432377804
100	2641	176.5	-4.4652692319307
100	2642	177	2.6
100	2643	177.5	1.8805651330343
100	2644	178	1.8320944941137
100	2645	178.5	2.1929563365411
100	2646	179	2.0846580381971
100	2647	179.5	1.992289685104
100	2648	180	1.842421140573
100	2649	180.5	2.1752513227239
100	2650	181	0.35725939643989
100	2651	181.5	-0.0033033766690629
100	2652	182	-0.10534683934879
100	2653	182.5	0.059164912258275
100	2654	183	-0.025747465942988
100	2655	183.5	0.1147108923737
100	2656	184	-0.17570713332854
100	2657	184.5	-0.015671246792191
100	2658	185	-0.038023834559134
100	2659	185.5	0.022457023449242
100	2660	186	0.11924771062564
100	2661	186.5	-0.1317339912802
100	2662	187	0.17988554330077
100	2663	187.5	-0.0099418329354393
100	2664	188	0.072906944360586
100	2665	188.5	-0.42508504663606
100	2666	189	-0.93325536227905
100	2667	189.5	-1.098161258832
100	2668	190	-0.75247885009085
100	2669	190.5	-0.96557166058697
100	2670	191	-0.90185205347393
100	2671	191.5	-0.95771586127932
100	2672	192	-0.84686231425223
100	2673	192.5	-0.67977792429001
100	2674	193	-0.52767751730619
100	2675	193.5	-0.92846817091842
100	2676	194	-0.36439202277363
100	2677	194.5	-0.4137826283069
100	2678	195	-0.37202688245022
100	2679	195.5	-0.61179583555455
100	2680	196	-0.28261985104151
100	2681	196.5	-0.051123025482944
100	2682	197	-0.14896989845637
100	2683	197.5	-0.58314356621329
100	2684	198	0.032699301657267
100	2685	198.5	0.061301034525968
100	2686	199	-0.17489078846525
100	2687	199.5	-0.17866572490667
100	2688	200	-0.12425234339471
100	2689	200.5	-0.039678022142109
100	2690	201	-0.26137948012077
100	2691	201.5	-0.23060567152547
100	2692	202	0.077453727899332
100	2693	202.5	0.11593071597018
100	2694	203	-0.17907906895417
100	2695	203.5	-0.64167707702684
100	2696	204	-0.2625107252723
100	2697	204.5	0.47558118981036
100	2698	205	-0.080656226242912
100	2699	205.5	-0.8699774704167
100	2700	206	0.1656909797938
100	2701	206.5	0.70227788998172
100	2702	207	0.16834306871465
100	2703	207.5	-2.2966034169928
100	2704	208	0.59211310193047
100	2705	208.5	1.4746549613439
100	2706	209	0.58290063949895
100	2707	209.5	-4.0660856792349
101	2510	111	1.4759883610222
101	2511	111.5	2.7034840962679
101	2512	112	1.8840426444086
101	2513	112.5	2.2635686525294
101	2514	113	1.9247871418078
101	2515	113.5	1.7775394068685
101	2516	114	2.1201280653054
101	2517	114.5	1.9403559927588
101	2518	115	2.7112502174439
101	2519	115.5	2.051751616477
101	2520	116	1.7288071564099
101	2521	116.5	2.4343143592207
101	2522	117	2.1131637869604
101	2523	117.5	2.2715734988603
101	2524	118	1.5655577847957
101	2525	118.5	2.4190079595337
101	2526	119	2.3189554590321
101	2527	119.5	1.9403399479899
101	2528	120	1.8321266202734
101	2529	120.5	2.2853388905215
101	2530	121	2.2010762725666
101	2531	121.5	2.0063521406572
101	2532	122	2.2293702898037
101	2533	122.5	2.1484791274832
101	2534	123	0.973
101	2535	123.5	0.973
101	2536	124	0.973
101	2537	124.5	0.973
101	2538	125	0.973
101	2539	125.5	0.973
101	2540	126	0.973
101	2541	126.5	0.973
101	2542	127	0.973
101	2543	127.5	1.6502621013629
101	2544	128	0.973
101	2545	128.5	0.973
101	2546	129	2.161937743283
101	2547	129.5	2.2412079737635
101	2548	130	0.973
101	2549	130.5	0.973
101	2550	131	2.5241498468936
101	2551	131.5	3.3748034321242
101	2552	132	0.973
101	2553	132.5	0.973
101	2554	133	4.3043625951654
101	2555	133.5	4.8523921111139
101	2556	134	0.973
101	2557	134.5	0.973
101	2558	135	6.257936215621
101	2559	135.5	6.0319009005851
101	2560	136	6.4483017445801
101	2561	136.5	6.9424976156643
101	2562	137	8.4365743716223
101	2563	137.5	7.0765182291522
101	2564	138	8.7705253529887
101	2565	138.5	6.1624990427097
101	2566	139	2.2360813119554
101	2567	139.5	1.616512092358
101	2568	140	2.7378530365686
101	2569	140.5	2.0605458626739
101	2570	141	2.2476522775627
101	2571	141.5	1.8452991854599
101	2572	142	2.4078345650707
101	2573	142.5	1.9772898119761
101	2574	143	2.0937388760903
101	2575	143.5	1.7964442027255
101	2576	144	1.6585683132366
101	2577	144.5	2.7105472079422
101	2578	145	1.9012119112758
101	2579	145.5	1.8214027520075
101	2580	146	2.3279663921777
101	2581	146.5	2.2775338083873
101	2582	147	2.2166232157166
101	2583	147.5	2.2409665370945
101	2584	148	1.4982744408359
101	2585	148.5	2.7956124638155
101	2586	149	2.0634247036057
101	2587	149.5	1.8277221492606
101	2588	150	2.482933162195
101	2589	150.5	1.6657715451561
101	2590	151	1.6838127519523
101	2591	151.5	2.3236240749588
101	2592	152	1.8515295430214
101	2593	152.5	2.8079841288652
101	2594	153	1.797152323326
101	2595	153.5	1.951998374371
101	2596	154	2.0343495618057
101	2597	154.5	2.731689452319
101	2598	155	2.0349101087585
101	2599	155.5	1.8975508954525
101	2600	156	1.6601190505067
101	2601	156.5	2.2826203590255
101	2602	157	0.973
101	2603	157.5	1.0655227572436
101	2604	158	1.8244880392986
101	2605	158.5	1.7796102648106
101	2606	159	1.9485611016444
101	2607	159.5	1.3445152379727
101	2608	160	1.2824217714569
101	2609	160.5	1.5171073996611
101	2610	161	2.0498340490202
101	2611	161.5	1.9539056210669
101	2612	162	2.1068485998855
101	2613	162.5	1.3770707952504
101	2614	163	2.5976178293148
101	2615	163.5	1.5826440837433
101	2616	164	2.0280299568
101	2617	164.5	1.6523485916998
101	2618	165	0.973
101	2619	165.5	0.973
101	2620	166	0.973
101	2621	166.5	0.973
101	2622	167	0.973
101	2623	167.5	0.973
101	2624	168	0.973
101	2625	168.5	0.973
101	2626	169	0.973
101	2627	169.5	1.5131317783358
101	2628	170	0.973
101	2629	170.5	0.973
101	2630	171	1.8920810102024
101	2631	171.5	1.6119564326422
101	2632	172	1.4746359266201
101	2633	172.5	0.973
101	2634	173	2.5599789009264
101	2635	173.5	3.194776891189
101	2636	174	0.973
101	2637	174.5	0.973
101	2638	175	3.5267940938826
101	2639	175.5	4.3035828034337
101	2640	176	0.973
101	2641	176.5	0.973
101	2642	177	6.1896023036113
101	2643	177.5	5.3823738833528
101	2644	178	5.7527700633942
101	2645	178.5	7.2259109534567
101	2646	179	7.5624503623495
101	2647	179.5	7.8731047061419
101	2648	180	7.9191477490787
101	2649	180.5	9.6737174796345
101	2650	181	3.3683021770639
101	2651	181.5	2.0952083012513
101	2652	182	1.7306743059934
101	2653	182.5	2.3129052362886
101	2654	183	2.0123365981912
101	2655	183.5	2.5146914013307
101	2656	184	1.4823036440227
101	2657	184.5	2.0438514436876
101	2658	185	1.9634874453211
101	2659	185.5	2.1768847164775
101	2660	186	2.5247472658918
101	2661	186.5	1.6351762261583
101	2662	187	2.7421030534087
101	2663	187.5	2.0714217452271
101	2664	188	2.3683788648522
101	2665	188.5	0.973
101	2666	189	0.973
101	2667	189.5	0.973
101	2668	190	0.973
101	2669	190.5	0.973
101	2670	191	0.973
101	2671	191.5	0.973
101	2672	192	0.973
101	2673	192.5	0.973
101	2674	193	0.973
101	2675	193.5	0.973
101	2676	194	0.973
101	2677	194.5	0.973
101	2678	195	0.973
101	2679	195.5	0.973
101	2680	196	0.973
101	2681	196.5	1.5078904746819
101	2682	197	1.2901147066318
101	2683	197.5	0.973
101	2684	198	1.6648162846693
101	2685	198.5	1.7278848182219
101	2686	199	1.2242987964073
101	2687	199.5	1.214042955278
101	2688	200	1.3247794548661
101	2689	200.5	1.4982047923529
101	2690	201	0.973
101	2691	201.5	0.973
101	2692	202	1.7214897034499
101	2693	202.5	1.8043562374595
101	2694	203	0.973
101	2695	203.5	0.973
101	2696	204	0.973
101	2697	204.5	2.4769508968386
101	2698	205	1.3901697282901
101	2699	205.5	0.973
101	2700	206	1.831148951471
101	2701	206.5	2.9093667475756
101	2702	207	1.8822967415124
101	2703	207.5	0.973
101	2704	208	2.5364170559335
101	2705	208.5	4.3951649104961
101	2706	209	2.7317583368075
101	2707	209.5	0.973

