version 3
run Default-0-20230112-15:00:08-3157
attr configname Default
attr datetime 20230112-15:00:08
attr datetimef 20230112-150008
attr experiment Default
attr inifile omnetpp.ini
attr iterationvars ""
attr iterationvarsd ""
attr iterationvarsf ""
attr measurement ""
attr network v5_0
attr processid 3157
attr repetition 0
attr replication #0
attr resultdir results
attr runnumber 0
attr seedset 0
config image-path ../../../inet4.4/images:../../../veins-5.2/images
config cmdenv-express-mode true
config cmdenv-autoflush true
config cmdenv-status-frequency 1s
config **.cmdenv-log-level info
config image-path ../../images
config network v5_0
config debug-on-errors true
config print-undisposed true
config **.scalar-recording true
config **.vector-recording true
config *.playgroundSizeX 3500m
config *.playgroundSizeY 3500m
config *.playgroundSizeZ 50m
config *.annotations.draw true
config *.obstacles.obstacles "xmldoc(\"config.xml\", \"//AnalogueModel[@type='SimpleObstacleShadowing']/obstacles\")"
config *.manager.updateInterval 0.5s
config *.manager.host "\"localhost\""
config *.manager.port 9999
config *.manager.autoShutdown true
config *.manager.launchConfig "xmldoc(\"v5_0_Final.launchd.xml\")"
config *.rsu[0].mobility.x 2000
config *.rsu[0].mobility.y 2000
config *.rsu[0].mobility.z 3
config *.rsu[*].applType "\"RSU\""
config *.rsu[*].appl.headerLength "80 bit"
config *.rsu[*].appl.sendBeacons false
config *.rsu[*].appl.dataOnSch false
config *.rsu[*].appl.beaconInterval 1s
config *.rsu[*].appl.beaconUserPriority 7
config *.rsu[*].appl.dataUserPriority 5
config *.rsu[*].nic.phy80211p.antennaOffsetZ "0 m"
config *.connectionManager.sendDirect true
config *.connectionManager.maxInterfDist 2600m
config *.connectionManager.drawMaxIntfDist false
config *.**.nic.mac1609_4.useServiceChannel false
config *.**.nic.mac1609_4.txPower 20mW
config *.**.nic.mac1609_4.bitrate 6Mbps
config *.**.nic.phy80211p.minPowerLevel -110dBm
config *.**.nic.phy80211p.useNoiseFloor true
config *.**.nic.phy80211p.noiseFloor -98dBm
config *.**.nic.phy80211p.decider "xmldoc(\"config.xml\")"
config *.**.nic.phy80211p.analogueModels "xmldoc(\"config.xml\")"
config *.**.nic.phy80211p.usePropagationDelay true
config *.**.nic.phy80211p.antenna "xmldoc(\"antenna.xml\", \"/root/Antenna[@id='monopole']\")"
config *.node[*].nic.phy80211p.antennaOffsetY "0 m"
config *.node[*].nic.phy80211p.antennaOffsetZ "1.895 m"
config *.node[*].applType "\"VeinsApp\""
config *.node[*].appl.headerLength "80 bit"
config *.node[*].appl.sendBeacons false
config *.node[*].appl.dataOnSch false
config *.node[*].appl.beaconInterval 1s
config *.node[*].veinsmobility.x 0
config *.node[*].veinsmobility.y 0
config *.node[*].veinsmobility.z 0
config *.node[*].veinsmobility.setHostSpeed false
config *.node[*0].veinsmobility.accidentCount 0
config *.node[*0].veinsmobility.accidentStart 73s
config *.node[*0].veinsmobility.accidentDuration 50s

vector 0 v5_0.node[0].veinsmobility posx ETV
vector 1 v5_0.node[0].veinsmobility posy ETV
vector 2 v5_0.node[1].veinsmobility posx ETV
vector 3 v5_0.node[1].veinsmobility posy ETV
vector 4 v5_0.node[2].veinsmobility posx ETV
vector 5 v5_0.node[2].veinsmobility posy ETV
vector 6 v5_0.node[3].veinsmobility posx ETV
vector 7 v5_0.node[3].veinsmobility posy ETV
vector 8 v5_0.node[0].veinsmobility speed ETV
vector 9 v5_0.node[1].veinsmobility speed ETV
vector 10 v5_0.node[2].veinsmobility speed ETV
vector 11 v5_0.node[3].veinsmobility speed ETV
vector 12 v5_0.node[0].veinsmobility acceleration ETV
vector 13 v5_0.node[0].veinsmobility co2emission ETV
vector 14 v5_0.node[1].veinsmobility acceleration ETV
vector 15 v5_0.node[1].veinsmobility co2emission ETV
vector 16 v5_0.node[2].veinsmobility acceleration ETV
vector 17 v5_0.node[2].veinsmobility co2emission ETV
vector 18 v5_0.node[3].veinsmobility acceleration ETV
vector 19 v5_0.node[3].veinsmobility co2emission ETV
vector 20 v5_0.node[4].veinsmobility posx ETV
vector 21 v5_0.node[4].veinsmobility posy ETV
vector 22 v5_0.node[5].veinsmobility posx ETV
vector 23 v5_0.node[5].veinsmobility posy ETV
vector 24 v5_0.node[6].veinsmobility posx ETV
vector 25 v5_0.node[6].veinsmobility posy ETV
vector 26 v5_0.node[4].veinsmobility speed ETV
vector 27 v5_0.node[5].veinsmobility speed ETV
vector 28 v5_0.node[6].veinsmobility speed ETV
vector 29 v5_0.node[7].veinsmobility posx ETV
vector 30 v5_0.node[7].veinsmobility posy ETV
vector 31 v5_0.node[4].veinsmobility acceleration ETV
vector 32 v5_0.node[4].veinsmobility co2emission ETV
vector 33 v5_0.node[5].veinsmobility acceleration ETV
vector 34 v5_0.node[5].veinsmobility co2emission ETV
vector 35 v5_0.node[6].veinsmobility acceleration ETV
vector 36 v5_0.node[6].veinsmobility co2emission ETV
vector 37 v5_0.node[7].veinsmobility speed ETV
vector 38 v5_0.node[7].veinsmobility acceleration ETV
vector 39 v5_0.node[7].veinsmobility co2emission ETV
vector 40 v5_0.node[8].veinsmobility posx ETV
vector 41 v5_0.node[8].veinsmobility posy ETV
vector 42 v5_0.node[9].veinsmobility posx ETV
vector 43 v5_0.node[9].veinsmobility posy ETV
vector 44 v5_0.node[10].veinsmobility posx ETV
vector 45 v5_0.node[10].veinsmobility posy ETV
vector 46 v5_0.node[8].veinsmobility speed ETV
vector 47 v5_0.node[9].veinsmobility speed ETV
vector 48 v5_0.node[10].veinsmobility speed ETV
vector 49 v5_0.node[8].veinsmobility acceleration ETV
vector 50 v5_0.node[8].veinsmobility co2emission ETV
vector 51 v5_0.node[9].veinsmobility acceleration ETV
vector 52 v5_0.node[9].veinsmobility co2emission ETV
vector 53 v5_0.node[10].veinsmobility acceleration ETV
vector 54 v5_0.node[10].veinsmobility co2emission ETV
vector 55 v5_0.node[11].veinsmobility posx ETV
vector 56 v5_0.node[11].veinsmobility posy ETV
vector 57 v5_0.node[11].veinsmobility speed ETV
vector 58 v5_0.node[12].veinsmobility posx ETV
vector 59 v5_0.node[12].veinsmobility posy ETV
vector 60 v5_0.node[11].veinsmobility acceleration ETV
vector 61 v5_0.node[11].veinsmobility co2emission ETV
vector 62 v5_0.node[13].veinsmobility posx ETV
vector 63 v5_0.node[13].veinsmobility posy ETV
vector 64 v5_0.node[12].veinsmobility speed ETV
vector 65 v5_0.node[12].veinsmobility acceleration ETV
vector 66 v5_0.node[12].veinsmobility co2emission ETV
vector 67 v5_0.node[13].veinsmobility speed ETV
vector 68 v5_0.node[14].veinsmobility posx ETV
vector 69 v5_0.node[14].veinsmobility posy ETV
vector 70 v5_0.node[13].veinsmobility acceleration ETV
vector 71 v5_0.node[13].veinsmobility co2emission ETV
vector 72 v5_0.node[14].veinsmobility speed ETV
vector 73 v5_0.node[14].veinsmobility acceleration ETV
vector 74 v5_0.node[14].veinsmobility co2emission ETV
vector 75 v5_0.node[15].veinsmobility posx ETV
vector 76 v5_0.node[15].veinsmobility posy ETV
vector 77 v5_0.node[16].veinsmobility posx ETV
vector 78 v5_0.node[16].veinsmobility posy ETV
vector 79 v5_0.node[15].veinsmobility speed ETV
vector 80 v5_0.node[16].veinsmobility speed ETV
vector 81 v5_0.node[17].veinsmobility posx ETV
vector 82 v5_0.node[17].veinsmobility posy ETV
vector 83 v5_0.node[15].veinsmobility acceleration ETV
vector 84 v5_0.node[15].veinsmobility co2emission ETV
vector 85 v5_0.node[16].veinsmobility acceleration ETV
vector 86 v5_0.node[16].veinsmobility co2emission ETV
vector 87 v5_0.node[17].veinsmobility speed ETV
vector 88 v5_0.node[17].veinsmobility acceleration ETV
vector 89 v5_0.node[17].veinsmobility co2emission ETV
vector 90 v5_0.node[18].veinsmobility posx ETV
vector 91 v5_0.node[18].veinsmobility posy ETV
vector 92 v5_0.node[18].veinsmobility speed ETV
vector 93 v5_0.node[18].veinsmobility acceleration ETV
vector 94 v5_0.node[18].veinsmobility co2emission ETV
vector 95 v5_0.node[19].veinsmobility posx ETV
vector 96 v5_0.node[19].veinsmobility posy ETV
vector 97 v5_0.node[19].veinsmobility speed ETV
vector 98 v5_0.node[20].veinsmobility posx ETV
vector 99 v5_0.node[20].veinsmobility posy ETV
vector 100 v5_0.node[19].veinsmobility acceleration ETV
vector 101 v5_0.node[19].veinsmobility co2emission ETV
vector 102 v5_0.node[20].veinsmobility speed ETV
vector 103 v5_0.node[20].veinsmobility acceleration ETV
vector 104 v5_0.node[20].veinsmobility co2emission ETV
vector 105 v5_0.node[21].veinsmobility posx ETV
vector 106 v5_0.node[21].veinsmobility posy ETV
vector 107 v5_0.node[21].veinsmobility speed ETV
vector 108 v5_0.node[21].veinsmobility acceleration ETV
vector 109 v5_0.node[21].veinsmobility co2emission ETV
0	2	0.5	2631.7350595066
0	3	1	2631.6926603558
0	4	1.5	2631.6229630968
0	5	2	2631.5282912727
0	6	2.5	2631.4086490547
0	7	3	2631.2604225505
0	8	3.5	2631.0878849679
0	9	4	2630.892145407
0	10	4.5	2630.6724391839
0	11	5	2630.4276965775
0	12	5.5	2630.1573760558
0	13	6	2629.8625589869
0	14	6.5	2629.5448277204
0	15	7	2629.2030409186
0	16	7.5	2628.6408029457
0	17	8	2627.8116486142
0	18	8.5	2626.9391961291
0	19	9	2626.0184382494
0	20	9.5	2625.0464957781
0	21	10	2624.0224871623
0	22	10.5	2622.9469447999
0	23	11	2621.8176152725
0	24	11.5	2620.6311656146
0	25	12	2619.3974312966
0	26	12.5	2618.1143565062
0	27	13	2616.7776122186
0	28	13.5	2615.3838827169
0	29	14	2613.933876192
0	30	14.5	2612.430882662
0	31	15	2610.8750346797
0	32	15.5	2609.2680088609
0	33	16	2607.6054052793
0	34	16.5	2605.8840043985
0	35	17	2604.1164308966
0	36	17.5	2602.2985366323
0	37	18	2600.4298359854
0	38	18.5	2598.5080573106
0	39	19	2596.5386160006
0	40	19.5	2594.5145886635
0	41	20	2592.4347862339
0	42	20.5	2590.3038963825
0	43	21	2588.1187586169
0	44	21.5	2585.876224402
0	45	22	2583.5771736375
0	46	22.5	2581.2272843939
0	47	23	2578.8250272302
0	48	23.5	2576.3650223406
0	49	24	2573.8493392041
0	50	24.5	2571.2797833098
0	51	25	2568.6863330575
0	52	25.5	2566.0916482897
0	53	26	2563.498984852
0	54	26.5	2560.9030062138
0	55	27	2558.3092978451
0	56	27.5	2555.7130857587
0	57	28	2553.1184064959
0	58	28.5	2550.5230329406
0	59	29	2547.9285410434
0	60	29.5	2545.3335305103
0	61	30	2542.739428506
0	62	30.5	2540.1439816806
0	63	31	2537.5483003752
0	64	31.5	2534.9544071521
0	65	32	2532.3592119595
0	66	32.5	2529.7648866439
0	67	33	2527.1705369354
0	146	33.5	2524.5772709372
0	147	34	2521.9808218135
0	148	34.5	2519.3844282731
0	149	35	2516.7892806227
0	150	35.5	2514.1939739176
0	151	36	2511.5996591776
0	152	36.5	2509.0064994983
0	153	37	2506.4130835157
0	233	37.5	2503.8182156581
0	313	38	2501.222583251
0	393	38.5	2498.628201986
0	473	39	2496.0341355706
0	474	39.5	2493.4383296432
0	475	40	2490.8435546545
0	477	40.5	2488.2493534428
0	478	41	2485.655102922
0	479	41.5	2483.0601970108
0	480	42	2480.4656198064
0	557	42.5	2477.8701654738
0	795	43	2475.2771442261
0	796	43.5	2472.6828952592
0	955	44	2470.0874233606
0	1114	44.5	2467.4937271242
0	1115	45	2464.8991101197
0	1116	45.5	2462.3044010754
0	1117	46	2459.7108201223
0	1118	46.5	2457.1153178372
0	1119	47	2454.51942465
0	1291	47.5	2452.1049758391
0	1463	48	2450.4052049746
0	1466	48.5	2448.7039828986
0	1469	49	2447.0023738908
0	1470	49.5	2445.4085903175
0	1471	50	2445.022678212
0	1472	50.5	2444.6394808504
0	1473	51	2444.2161111271
0	1476	51.5	2443.8162894422
0	1477	52	2443.4598866852
0	1478	52.5	2443.1468846647
0	1479	53	2442.8773015719
0	1480	53.5	2442.6511374067
0	1481	54	2442.4766616474
0	1482	54.5	2442.4362006881
0	1483	55	2442.3958884771
0	1484	55.5	2442.3652781798
0	1485	56	2442.3360842583
0	1486	56.5	2442.3120745602
0	1487	57	2442.2866568071
0	1488	57.5	2442.2598584306
0	1489	58	2442.2316234537
0	1490	58.5	2442.2020681472
0	1491	59	2442.1713431246
0	1492	59.5	2442.1391856663
0	1493	60	2442.088958404
0	1494	60.5	2441.8653528244
0	1495	61	2442.0513644307
0	1496	61.5	2442.4767216791
0	1497	62	2442.9179392915
0	1498	62.5	2443.3737840716
0	1499	63	2443.8517347983
0	1500	63.5	2444.4217074605
0	1501	64	2445.0086127939
0	1502	64.5	2445.6133645846
0	1503	65	2446.2357824997
0	1504	65.5	2446.8771158312
0	1505	66	2447.5357486801
0	1506	66.5	2448.1992618727
0	1507	67	2448.862762871
0	1508	67.5	2449.5261625623
0	1509	68	2450.1895460316
0	1510	68.5	2450.8528824874
0	1511	69	2451.515964735
0	1512	69.5	2452.1788810027
0	1513	70	2452.8420530326
0	1514	70.5	2453.5050027478
0	1515	71	2453.751541972
0	1516	71.5	2453.1490988773
0	1517	72	2452.5468109112
0	1518	72.5	2451.9442483508
0	1519	73	2451.3416938266
0	1520	73.5	2450.7399062938
0	1521	74	2450.1373549905
0	1522	74.5	2449.5348259914
0	1523	75	2448.9324109849
0	1524	75.5	2448.3303403773
1	2	0.5	3022.4123751242
1	3	1	3022.0353440456
1	4	1.5	3021.415566708
1	5	2	3020.5737050353
1	6	2.5	3019.5097961174
1	7	3	3018.1917037079
1	8	3.5	3016.6574269645
1	9	4	3014.916828474
1	10	4.5	3012.9631083431
1	11	5	3010.786754163
1	12	5.5	3008.3829504047
1	13	6	3005.7613130454
1	14	6.5	3002.9359130058
1	15	7	2999.8966010297
1	16	7.5	2996.6450931979
1	17	8	2993.1979513299
1	18	8.5	2989.5708009005
1	19	9	2985.7428247118
1	20	9.5	2981.7020527357
1	21	10	2977.4448199878
1	22	10.5	2972.9733398687
1	23	11	2968.2782439757
1	24	11.5	2963.345675773
1	25	12	2958.2165254327
1	26	12.5	2952.8822460799
1	27	13	2947.324840147
1	28	13.5	2941.5305228094
1	29	14	2935.5022383137
1	30	14.5	2929.2536646416
1	31	15	2922.7853528736
1	32	15.5	2916.1042734012
1	33	16	2909.1921338886
1	34	16.5	2902.0355493743
1	35	17	2894.6870059334
1	36	17.5	2887.1292580068
1	37	18	2879.3602866642
1	38	18.5	2871.3706477275
1	39	19	2863.1828552512
1	40	19.5	2854.7681257948
1	41	20	2846.1215159176
1	42	20.5	2837.262514228
1	43	21	2828.1779812351
1	44	21.5	2818.8548271619
1	45	22	2809.2967101177
1	46	22.5	2799.5272362214
1	47	23	2789.5400469452
1	48	23.5	2779.3127761837
1	49	24	2768.854027628
1	50	24.5	2758.171307452
1	51	25	2747.3892484205
1	52	25.5	2736.6020569913
1	53	26	2725.8232690776
1	54	26.5	2715.0306984866
1	55	27	2704.2475663582
1	56	27.5	2693.4540252248
1	57	28	2682.6668566819
1	58	28.5	2671.8768016752
1	59	29	2661.0903363554
1	60	29.5	2650.3012150247
1	61	30	2639.5158710303
1	62	30.5	2628.7249357523
1	63	31	2617.933025592
1	64	31.5	2607.148549634
1	65	32	2596.3586605554
1	66	32.5	2585.5723881116
1	67	33	2574.7860142523
1	146	33.5	2564.0041460712
1	147	34	2553.2090435969
1	148	34.5	2542.4141722191
1	149	35	2531.6244808035
1	150	35.5	2520.8341280958
1	151	36	2510.0478996225
1	152	36.5	2499.2664734768
1	153	37	2488.4839817137
1	233	37.5	2477.6954535758
1	313	38	2466.9037467167
1	393	38.5	2456.1172416564
1	473	39	2445.3320456278
1	474	39.5	2434.5396173326
1	475	40	2423.7514753109
1	477	40.5	2412.9657188477
1	478	41	2402.1797573743
1	479	41.5	2391.3910710234
1	480	42	2380.6031350009
1	557	42.5	2369.8111122204
1	795	43	2359.0292063234
1	796	43.5	2348.2421955122
1	955	44	2337.4500996917
1	1114	44.5	2326.6653871592
1	1115	45	2315.8768460304
1	1116	45.5	2305.0913538206
1	1117	46	2294.3107303949
1	1118	46.5	2283.5221206537
1	1119	47	2272.7318860656
1	1291	47.5	2261.9062922131
1	1463	48	2250.9511356279
1	1466	48.5	2239.9866258716
1	1469	49	2229.0196223091
1	1470	49.5	2218.0480424091
1	1471	50	2206.9662254723
1	1472	50.5	2195.9623648738
1	1473	51	2185.7672492983
1	1476	51.5	2176.5675061094
1	1477	52	2168.3668157468
1	1478	52.5	2161.1647596415
1	1479	53	2154.9617563616
1	1480	53.5	2149.7578059072
1	1481	54	2145.5507062245
1	1482	54.5	2142.2868555058
1	1483	55	2139.0350038158
1	1484	55.5	2135.5093273697
1	1485	56	2131.7345388792
1	1486	56.5	2127.7155241957
1	1487	57	2123.4608133426
1	1488	57.5	2118.9749981649
1	1489	58	2114.2487085368
1	1490	58.5	2109.3014072562
1	1491	59	2104.1583056375
1	1492	59.5	2098.7754267631
1	1493	60	2093.15354414
1	1494	60.5	2087.3117893916
1	1495	61	2081.2393657118
1	1496	61.5	2074.9422290567
1	1497	62	2068.410290055
1	1498	62.5	2061.6618053745
1	1499	63	2054.7280112086
1	1500	63.5	2047.6005479479
1	1501	64	2040.2613429669
1	1502	64.5	2032.6989694415
1	1503	65	2024.9156824239
1	1504	65.5	2016.8958596112
1	1505	66	2008.6597076971
1	1506	66.5	2000.3625274682
1	1507	67	1992.0654997295
1	1508	67.5	1983.769738825
1	1509	68	1975.4741807766
1	1510	68.5	1967.1792106293
1	1511	69	1958.8874193346
1	1512	69.5	1950.5977036031
1	1513	70	1942.3047895888
1	1514	70.5	1934.0146556012
1	1515	71	1925.7164624287
1	1516	71.5	1917.4184819944
1	1517	72	1909.1226382814
1	1518	72.5	1900.8230123408
1	1519	73	1892.5234970888
1	1520	73.5	1884.234546287
1	1521	74	1875.9350753976
1	1522	74.5	1867.6359117264
1	1523	75	1859.3383181756
1	1524	75.5	1851.0454683341
2	2	0.5	1287.3631844854
2	3	1	1287.3971152697
2	4	1.5	1287.4522898303
2	5	2	1287.5264110332
2	6	2.5	1287.62113957
2	7	3	1287.7358140606
2	8	3.5	1287.8709316116
2	9	4	1288.0250132503
2	10	4.5	1288.1995021269
2	11	5	1288.3803450145
2	12	5.5	1288.5613218796
2	13	6	1288.7420702237
2	14	6.5	1288.9232484703
2	15	7	1289.1040265976
2	16	7.5	1289.2841547827
2	17	8	1289.4648170919
2	18	8.5	1289.6461204254
2	19	9	1289.8267889973
2	20	9.5	1290.0076002722
2	21	10	1290.1889275151
2	22	10.5	1290.3695223263
2	23	11	1290.5501811963
2	24	11.5	1292.6540879257
2	25	12	1297.5639150366
2	26	12.5	1302.8378810985
2	27	13	1306.2425469026
2	28	13.5	1308.2562478072
2	29	14	1306.9227445516
2	30	14.5	1302.2154254551
2	31	15	1297.5804711034
2	32	15.5	1293.6998546909
2	33	16	1292.3351438564
2	34	16.5	1292.4916450585
2	35	17	1292.6480421006
2	36	17.5	1292.8044126967
2	37	18	1292.9607878359
2	38	18.5	1293.1163144546
2	39	19	1293.2722946536
2	40	19.5	1293.42863945
2	41	20	1293.5848936621
2	42	20.5	1293.7413971183
2	43	21	1293.8970749625
2	44	21.5	1294.0528945931
2	45	22	1294.2089592799
2	46	22.5	1294.3654001004
2	47	23	1294.5220096927
2	48	23.5	1294.6781146179
2	49	24	1294.8335943035
2	50	24.5	1294.9893859179
2	51	25	1295.1450464214
2	52	25.5	1295.3011772342
2	53	26	1295.4576196355
2	54	26.5	1295.5972772553
2	55	27	1295.7222422449
2	56	27.5	1295.8614929161
2	57	28	1296.0132666022
2	58	28.5	1296.1741153949
2	59	29	1296.3396362179
2	60	29.5	1296.5189786375
2	61	30	1296.7132164361
2	62	30.5	1296.8634114895
2	63	31	1296.9796594604
2	64	31.5	1297.0746293006
2	65	32	1297.1695770607
2	66	32.5	1297.2645506554
2	67	33	1297.359677108
2	146	33.5	1297.0053546188
2	147	34	1296.5672262392
2	148	34.5	1296.0991005796
2	149	35	1295.6436717052
2	150	35.5	1295.2007070808
2	151	36	1294.7851236622
2	152	36.5	1294.5125636539
2	153	37	1294.4019141947
2	233	37.5	1294.4444998708
2	313	38	1294.4870621768
2	393	38.5	1294.5296114372
2	473	39	1294.5974091637
2	474	39.5	1294.7275687865
2	475	40	1294.8578931703
2	477	40.5	1294.9880754326
2	478	41	1295.1181630467
2	479	41.5	1295.2483270118
2	480	42	1295.3785065116
2	557	42.5	1295.5633635888
2	795	43	1296.3890562203
2	796	43.5	1296.9281189074
2	955	44	1297.3632236316
2	1114	44.5	1297.6261571537
2	1115	45	1297.8244374366
2	1116	45.5	1298.090879785
2	1117	46	1298.4361608364
2	1118	46.5	1298.9411975638
2	1119	47	1299.6294862628
2	1291	47.5	1300.4202688612
2	1463	48	1301.2810126139
2	1466	48.5	1302.2060202378
2	1469	49	1306.4554387565
2	1470	49.5	1307.479871987
2	1471	50	1308.5871834405
2	1472	50.5	1309.6923060738
2	1473	51	1310.7983917224
2	1476	51.5	1311.9028234141
2	1477	52	1313.006744389
2	1478	52.5	1314.1134096591
2	1479	53	1315.2160882422
2	1480	53.5	1316.3219116668
2	1481	54	1317.4548332968
2	1482	54.5	1318.7731161946
2	1483	55	1320.0808581468
2	1484	55.5	1321.3880658024
2	1485	56	1322.6369496842
2	1486	56.5	1323.8475046512
2	1487	57	1325.0410191318
2	1488	57.5	1326.2178633368
2	1489	58	1327.3984415013
2	1490	58.5	1328.580488653
2	1491	59	1329.7583094555
2	1492	59.5	1330.8109268157
2	1493	60	1331.4094457534
2	1494	60.5	1332.0075523928
2	1495	61	1336.1744907856
2	1496	61.5	1343.4164503298
2	1497	62	1350.6563991281
2	1498	62.5	1357.8923533631
2	1499	63	1365.1282095003
2	1500	63.5	1372.3881822573
2	1501	64	1379.6263951102
2	1502	64.5	1386.8612839555
2	1503	65	1394.0992780236
2	1504	65.5	1401.3384782862
2	1505	66	1408.5765585736
2	1506	66.5	1415.8357403666
2	1507	67	1423.0714272553
2	1508	67.5	1430.3186811844
2	1509	68	1437.5533606398
2	1510	68.5	1444.7915825465
2	1511	69	1452.0375515566
2	1512	69.5	1459.2902829245
2	1513	70	1466.5434528759
2	1514	70.5	1473.7848625788
2	1515	71	1481.031117663
2	1516	71.5	1488.2612899493
2	1517	72	1495.4986923692
2	1518	72.5	1502.7408661222
2	1519	73	1509.9986161843
2	1520	73.5	1517.2376443937
2	1521	74	1524.4720099461
2	1522	74.5	1531.71819129
2	1523	75	1538.9704064446
2	1524	75.5	1546.2147801785
3	2	0.5	1828.227079195
3	3	1	1827.4147938192
3	4	1.5	1826.0939434571
3	5	2	1824.3195203077
3	6	2.5	1822.0517682778
3	7	3	1819.3065204602
3	8	3.5	1816.071876375
3	9	4	1812.3832418723
3	10	4.5	1808.2060686797
3	11	5	1803.8767837603
3	12	5.5	1799.544291487
3	13	6	1795.2172698919
3	14	6.5	1790.8799566505
3	15	7	1786.5522220582
3	16	7.5	1782.2400467461
3	17	8	1777.9150847774
3	18	8.5	1773.5747770192
3	19	9	1769.2496651299
3	20	9.5	1764.9211369995
3	21	10	1760.5802568644
3	22	10.5	1756.2569107665
3	23	11	1751.9320311304
3	24	11.5	1748.6357935062
3	25	12	1748.9207613645
3	26	12.5	1749.2960902946
3	27	13	1744.5079231691
3	28	13.5	1738.9547530329
3	29	14	1732.2668259898
3	30	14.5	1727.1903217072
3	31	15	1722.99983963
3	32	15.5	1718.9507568683
3	33	16	1714.6683898177
3	34	16.5	1710.3294051997
3	35	17	1705.9933084091
3	36	17.5	1701.6579448339
3	37	18	1697.3224553019
3	38	18.5	1693.010490939
3	39	19	1688.6859510969
3	40	19.5	1684.3513028137
3	41	20	1680.0191659778
3	42	20.5	1675.6801188635
3	43	21	1671.363961787
3	44	21.5	1667.0438736901
3	45	22	1662.7169914255
3	46	22.5	1658.3796808859
3	47	23	1654.0376911573
3	48	23.5	1649.7096932884
3	49	24	1645.3990301434
3	50	24.5	1641.0797187919
3	51	25	1636.7640424827
3	52	25.5	1632.4353268854
3	53	26	1628.0979725132
3	54	26.5	1624.2259750105
3	55	27	1620.7613296257
3	56	27.5	1616.6744660605
3	57	28	1612.0453686332
3	58	28.5	1606.8896398498
3	59	29	1601.2832893953
3	60	29.5	1595.2087880848
3	61	30	1588.6297658775
3	62	30.5	1581.530589656
3	63	31	1574.2655425621
3	64	31.5	1567.0154586174
3	65	32	1559.7670602947
3	66	32.5	1552.5166897373
3	67	33	1545.2546498692
3	146	33.5	1538.0031152302
3	147	34	1530.7733739205
3	148	34.5	1523.5534358639
3	149	35	1516.3247553399
3	150	35.5	1509.0925059915
3	151	36	1501.846289414
3	152	36.5	1494.5961931935
3	153	37	1487.3409345467
3	233	37.5	1480.0942719905
3	313	38	1472.851586258
3	393	38.5	1465.6111204317
3	473	39	1458.3558320208
3	474	39.5	1451.1042794175
3	475	40	1443.8435475258
3	477	40.5	1436.5907336148
3	478	41	1429.3431928195
3	479	41.5	1422.0913982913
3	480	42	1414.8387382878
3	557	42.5	1407.595704902
3	795	43	1400.7349858135
3	796	43.5	1394.9460962126
3	955	44	1390.2735910024
3	1114	44.5	1386.7135161944
3	1115	45	1383.2086206041
3	1116	45.5	1379.1482868316
3	1117	46	1374.6234036069
3	1118	46.5	1369.6693310766
3	1119	47	1364.2835673774
3	1291	47.5	1358.4462845782
3	1463	48	1352.1681404524
3	1466	48.5	1345.4212646699
3	1469	49	1338.7021733411
3	1470	49.5	1331.5336601986
3	1471	50	1324.3572842069
3	1472	50.5	1317.1950937416
3	1473	51	1310.0266620703
3	1476	51.5	1302.8689495297
3	1477	52	1295.7145468947
3	1478	52.5	1288.5423587523
3	1479	53	1281.3960079355
3	1480	53.5	1274.2292757118
3	1481	54	1267.0766042247
3	1482	54.5	1259.9630619744
3	1483	55	1252.8548516864
3	1484	55.5	1245.7495455584
3	1485	56	1238.6269551748
3	1486	56.5	1231.5193399116
3	1487	57	1224.386536085
3	1488	57.5	1217.2831780165
3	1489	58	1210.1572820013
3	1490	58.5	1203.0225192718
3	1491	59	1195.9132665219
3	1492	59.5	1188.7771325214
3	1493	60	1181.5869250158
3	1494	60.5	1174.4016705891
3	1495	61	1170.008220369
3	1496	61.5	1170.374673482
3	1497	62	1170.7601827504
3	1498	62.5	1170.9340754179
3	1499	63	1170.9734676257
3	1500	63.5	1171.0129911248
3	1501	64	1171.0523961624
3	1502	64.5	1171.0917831045
3	1503	65	1171.131186951
3	1504	65.5	1171.1705973642
3	1505	66	1171.2100016801
3	1506	66.5	1171.2972164741
3	1507	67	1171.4328529984
3	1508	67.5	1171.5009855609
3	1509	68	1171.5199146019
3	1510	68.5	1171.5388529105
3	1511	69	1171.5177570311
3	1512	69.5	1171.4805782028
3	1513	70	1171.4433971271
3	1514	70.5	1171.4062763359
3	1515	71	1171.2589158835
3	1516	71.5	1171.0261147637
3	1517	72	1170.7930808431
3	1518	72.5	1170.5598932933
3	1519	73	1170.3262042087
3	1520	73.5	1170.0931179402
3	1521	74	1169.8601818038
3	1522	74.5	1169.6268652147
3	1523	75	1169.3206358878
3	1524	75.5	1168.866070888
4	2	0.5	243.31602054439
4	3	1	243.30913937406
4	4	1.5	243.29782204749
4	5	2	243.28247408115
4	6	2.5	243.26342766208
4	7	3	243.24040584138
4	8	3.5	243.21380397596
4	9	4	243.18310993013
4	10	4.5	243.1484340321
4	11	5	243.10924115102
4	12	5.5	243.0663145869
4	13	6	243.01953350392
4	14	6.5	242.96903013124
4	15	7	242.91449734592
4	16	7.5	242.85595049639
4	17	8	242.79419269238
4	18	8.5	242.73295519606
4	19	9	242.26508669544
4	20	9.5	241.68610673898
4	21	10	241.10712287819
4	22	10.5	240.52771094977
4	23	11	239.94936719164
4	24	11.5	239.37215495552
4	25	12	238.79357286438
4	26	12.5	238.21557328652
4	27	13	237.63733651803
4	28	13.5	237.05823889328
4	29	14	236.48010755552
4	30	14.5	235.90121453989
4	31	15	235.80409846641
4	32	15.5	235.0742950117
4	33	16	232.5949971755
4	34	16.5	230.11229897349
4	35	17	227.62779660232
4	36	17.5	225.14764125971
4	37	18	222.66813646222
4	38	18.5	220.19162743364
4	39	19	217.70837988122
4	40	19.5	215.22731687815
4	41	20	212.75282488286
4	42	20.5	210.27264811459
4	43	21	207.79659313092
4	44	21.5	205.31452671322
4	45	22	202.83089691552
4	46	22.5	200.3480367423
4	47	23	197.87148526474
4	48	23.5	195.38814299658
4	49	24	192.90354517207
4	50	24.5	190.41885485034
4	51	25	187.93716550677
4	52	25.5	185.45432597469
4	53	26	182.97469523118
4	54	26.5	180.49361961486
4	55	27	179.61417745787
4	56	27.5	178.8559691062
4	57	28	178.09591954772
4	58	28.5	177.33738778485
4	59	29	176.57814397954
4	60	29.5	175.81934606808
4	61	30	175.05880281387
4	62	30.5	174.29889175657
4	63	31	173.54065930506
4	64	31.5	172.78142890846
4	65	32	172.02238947642
4	66	32.5	171.26402847329
4	67	33	170.50400739827
4	146	33.5	169.79079523124
4	147	34	169.44349024096
4	148	34.5	169.49539697205
4	149	35	169.59012659499
4	150	35.5	169.6847860238
4	151	36	169.7796467169
4	152	36.5	169.87425518362
4	153	37	170.12243900937
4	233	37.5	170.40556825069
4	313	38	170.68902704504
4	393	38.5	170.97228521679
4	473	39	171.25559044897
4	474	39.5	171.5390419754
4	475	40	171.82247454638
4	477	40.5	172.10592645709
4	478	41	172.38946074515
4	479	41.5	172.6729433944
4	480	42	172.95657042495
4	557	42.5	173.23988411739
4	795	43	173.61277161411
4	796	43.5	174.14280516421
4	955	44	174.67226522055
4	1114	44.5	176.09652246546
4	1115	45	178.58705503435
4	1116	45.5	181.07482282538
4	1117	46	183.56480070169
4	1118	46.5	186.05373565783
4	1119	47	188.58123323927
4	1291	47.5	191.17984637397
4	1463	48	193.77774498193
4	1466	48.5	196.67387435597
4	1469	49	200.19107397192
4	1470	49.5	203.72778743366
4	1471	50	207.26647331018
4	1472	50.5	210.79940940742
4	1473	51	214.33261358016
4	1476	51.5	217.86818029277
4	1477	52	221.40024221234
4	1478	52.5	224.93759651517
4	1479	53	228.4735406317
4	1480	53.5	232.01025300391
4	1481	54	235.5882561797
4	1482	54.5	239.87695087795
4	1483	55	244.16687112593
4	1484	55.5	248.46016390785
4	1485	56	252.75870260666
4	1486	56.5	257.05186138733
4	1487	57	261.35513759439
4	1488	57.5	265.64738122816
4	1489	58	269.9436453149
4	1490	58.5	274.23756451625
4	1491	59	278.52956969908
4	1492	59.5	282.82938435557
4	1493	60	287.12722960976
4	1494	60.5	291.42781023402
4	1495	61	295.66003877192
4	1496	61.5	299.59344093536
4	1497	62	303.53082128626
4	1498	62.5	307.46605655144
4	1499	63	311.39996498288
4	1500	63.5	315.34040090628
4	1501	64	319.27257643803
4	1502	64.5	323.20724542509
4	1503	65	327.14609402395
4	1504	65.5	331.08839822107
4	1505	66	335.02932583459
4	1506	66.5	338.97178067884
4	1507	67	342.91035109595
4	1508	67.5	346.84438368573
4	1509	68	350.78055117372
4	1510	68.5	354.71536925121
4	1511	69	358.64867783256
4	1512	69.5	362.36900405621
4	1513	70	365.25437051244
4	1514	70.5	368.09528447106
4	1515	71	370.93264405918
4	1516	71.5	373.77346710279
4	1517	72	376.61451679771
4	1518	72.5	379.45626523183
4	1519	73	382.31811501482
4	1520	73.5	385.22572085948
4	1521	74	388.12859525275
4	1522	74.5	391.0330289033
4	1523	75	393.93720605224
4	1524	75.5	396.83672892116
5	2	0.5	2497.1688996973
5	3	1	2496.3316489356
5	4	1.5	2494.9546389403
5	5	2	2493.0872100228
5	6	2.5	2490.7697802708
5	7	3	2487.9686525557
5	8	3.5	2484.7319310447
5	9	4	2480.9973027781
5	10	4.5	2476.7781916922
5	11	5	2472.0094869528
5	12	5.5	2466.7864948306
5	13	6	2461.0945128687
5	14	6.5	2454.9496297827
5	15	7	2448.3144770721
5	16	7.5	2441.1909222081
5	17	8	2433.5380245307
5	18	8.5	2425.5499333367
5	19	9	2417.5871251784
5	20	9.5	2409.6034747697
5	21	10	2401.6197705222
5	22	10.5	2393.6301635792
5	23	11	2385.6552858138
5	24	11.5	2377.6960107926
5	25	12	2369.7178466134
5	26	12.5	2361.7477148054
5	27	13	2353.7743123379
5	28	13.5	2345.7890393818
5	29	14	2337.8170907153
5	30	14.5	2329.834639146
5	31	15	2321.8400533656
5	32	15.5	2313.9513235185
5	33	16	2306.358641657
5	34	16.5	2298.7555464059
5	35	17	2291.1469260082
5	36	17.5	2283.5516180908
5	37	18	2275.9583024252
5	38	18.5	2268.3741610982
5	39	19	2260.7693834985
5	40	19.5	2253.1712959325
5	41	20	2245.5933316341
5	42	20.5	2237.9979581023
5	43	21	2230.4152072575
5	44	21.5	2222.814046802
5	45	22	2215.2080986015
5	46	22.5	2207.6045073243
5	47	23	2200.0202360004
5	48	23.5	2192.4151683394
5	49	24	2184.8062556228
5	50	24.5	2177.1970596397
5	51	25	2169.5970539479
5	52	25.5	2161.9935258832
5	53	26	2154.399824515
5	54	26.5	2146.8016983224
5	55	27	2138.8746753475
5	56	27.5	2130.9304732559
5	57	28	2122.9669797411
5	58	28.5	2115.019389079
5	59	29	2107.0643379204
5	60	29.5	2099.1139586596
5	61	30	2091.1452923995
5	62	30.5	2083.1832500445
5	63	31	2075.2387954444
5	64	31.5	2067.2838847786
5	65	32	2059.3309749616
5	66	32.5	2051.3851734512
5	67	33	2043.4219783731
5	146	33.5	2035.4573568702
5	147	34	2027.4610729283
5	148	34.5	2019.4810722796
5	149	35	2011.4843132757
5	150	35.5	2003.4934798256
5	151	36	1995.4856563201
5	152	36.5	1987.4991249219
5	153	37	1979.6536396155
5	233	37.5	1971.6674700528
5	313	38	1963.6720048534
5	393	38.5	1955.6821985766
5	473	39	1947.6910648718
5	474	39.5	1939.6958046798
5	475	40	1931.7010791581
5	477	40.5	1923.7058081245
5	478	41	1915.7082134867
5	479	41.5	1907.7120754188
5	480	42	1899.7118648142
5	557	42.5	1891.7204924747
5	795	43	1883.7359081525
5	796	43.5	1875.7509871386
5	955	44	1867.7747057695
5	1114	44.5	1859.9732490843
5	1115	45	1852.3763415627
5	1116	45.5	1844.7878674828
5	1117	46	1837.1926519489
5	1118	46.5	1829.6006176481
5	1119	47	1822.0174402529
5	1291	47.5	1814.4555595871
5	1463	48	1806.8957581716
5	1466	48.5	1799.471004121
5	1469	49	1792.3053684356
5	1470	49.5	1785.131542041
5	1471	50	1777.9537148234
5	1472	50.5	1770.7875503879
5	1473	51	1763.6208421923
5	1476	51.5	1756.4493418494
5	1477	52	1749.2849505851
5	1478	52.5	1742.1098243156
5	1479	53	1734.9375584517
5	1480	53.5	1727.7637342662
5	1481	54	1720.6248370688
5	1482	54.5	1713.8965561865
5	1483	55	1707.166352611
5	1484	55.5	1700.4308580654
5	1485	56	1693.6871335097
5	1486	56.5	1686.9518491905
5	1487	57	1680.2006922364
5	1488	57.5	1673.4668436376
5	1489	58	1666.7266875869
5	1490	58.5	1659.9902102891
5	1491	59	1653.2567357821
5	1492	59.5	1646.511009451
5	1493	60	1639.7683727993
5	1494	60.5	1633.0214447873
5	1495	61	1626.2429542998
5	1496	61.5	1619.292198956
5	1497	62	1612.3344137166
5	1498	62.5	1605.3787845438
5	1499	63	1598.4238969414
5	1500	63.5	1591.4574691672
5	1501	64	1584.5056452155
5	1502	64.5	1577.5494130002
5	1503	65	1570.5857915115
5	1504	65.5	1563.6160607543
5	1505	66	1556.648763706
5	1506	66.5	1549.6787666157
5	1507	67	1542.7156369323
5	1508	67.5	1535.7605298255
5	1509	68	1528.8016483616
5	1510	68.5	1521.8451525643
5	1511	69	1514.8913254561
5	1512	69.5	1507.8183834413
5	1513	70	1500.3619085737
5	1514	70.5	1492.8893472515
5	1515	71	1485.4261351209
5	1516	71.5	1477.9538129363
5	1517	72	1470.4808945814
5	1518	72.5	1463.006138307
5	1519	73	1455.5258132825
5	1520	73.5	1448.0641734777
5	1521	74	1440.6146757547
5	1522	74.5	1433.1611765902
5	1523	75	1425.7083356725
5	1524	75.5	1418.2674387945
6	2	0.5	1630.0247913966
6	3	1	1630.0082108838
6	4	1.5	1629.9812774651
6	5	2	1629.8417228467
6	6	2.5	1629.598968075
6	7	3	1629.3054750046
6	8	3.5	1628.9658557308
6	9	4	1628.5728588598
6	10	4.5	1628.1282675097
6	11	5	1627.6355270261
6	12	5.5	1627.0910144426
6	13	6	1626.4940830157
6	14	6.5	1625.8345458684
6	15	7	1625.0961785339
6	16	7.5	1624.322276724
6	17	8	1623.6989221299
6	18	8.5	1623.0772683261
6	19	9	1622.4546982928
6	20	9.5	1621.8158716178
6	21	10	1621.1479699811
6	22	10.5	1620.4805658566
6	23	11	1619.8128705663
6	24	11.5	1619.1453593093
6	25	12	1618.477649382
6	26	12.5	1617.8102521775
6	27	13	1617.1432332682
6	28	13.5	1616.4748463017
6	29	14	1615.5620805648
6	30	14.5	1614.8538707139
6	31	15	1614.1444828574
6	32	15.5	1613.4359561502
6	33	16	1612.7275783645
6	34	16.5	1612.0191638161
6	35	17	1611.3111493622
6	36	17.5	1610.6013700862
6	37	18	1609.9844655549
6	38	18.5	1609.3916057335
6	39	19	1608.7978704775
6	40	19.5	1608.2024692262
6	41	20	1607.5996517522
6	42	20.5	1606.9399328879
6	43	21	1606.2808350986
6	44	21.5	1605.6199371605
6	45	22	1604.9601680936
6	46	22.5	1604.3006430242
6	47	23	1603.6409381006
6	48	23.5	1602.9812482408
6	49	24	1602.3200556216
6	50	24.5	1601.6594453757
6	51	25	1600.9992167008
6	52	25.5	1600.3514186537
6	53	26	1599.7119629709
6	54	26.5	1599.074586045
6	55	27	1598.4685066192
6	56	27.5	1598.2871992715
6	57	28	1600.1327301846
6	58	28.5	1604.5245775143
6	59	29	1608.8714928426
6	60	29.5	1613.2086702916
6	61	30	1617.5543518139
6	62	30.5	1621.8981999634
6	63	31	1626.2505997774
6	64	31.5	1630.5994169144
6	65	32	1634.9475009422
6	66	32.5	1639.3068751593
6	67	33	1643.6594599589
6	146	33.5	1648.0111841358
6	147	34	1652.3707087236
6	148	34.5	1656.7378211758
6	149	35	1661.1153184619
6	150	35.5	1665.4786211952
6	151	36	1669.8497660584
6	152	36.5	1674.2195324327
6	153	37	1678.5747012508
6	233	37.5	1682.9394769202
6	313	38	1687.2844451248
6	393	38.5	1691.6535222295
6	473	39	1696.007967332
6	474	39.5	1700.3603826565
6	475	40	1704.7219716228
6	477	40.5	1709.0685501357
6	478	41	1713.421631285
6	479	41.5	1717.772810848
6	480	42	1722.1196195115
6	557	42.5	1726.4788973695
6	795	43	1730.8314410215
6	796	43.5	1735.1881622528
6	955	44	1739.5504760824
6	1114	44.5	1743.9007958359
6	1115	45	1748.2549870936
6	1116	45.5	1752.6101947357
6	1117	46	1756.9728058497
6	1118	46.5	1761.3346374495
6	1119	47	1765.6900989362
6	1291	47.5	1770.0566241341
6	1463	48	1774.41547178
6	1466	48.5	1778.7760363325
6	1469	49	1783.1222143166
6	1470	49.5	1787.4824368078
6	1471	50	1791.8482998944
6	1472	50.5	1796.1887652293
6	1473	51	1800.5258676313
6	1476	51.5	1804.8860753857
6	1477	52	1809.2343602234
6	1478	52.5	1813.5937689443
6	1479	53	1817.9450976856
6	1480	53.5	1822.3073966277
6	1481	54	1826.6539629906
6	1482	54.5	1830.9981052334
6	1483	55	1835.3537803019
6	1484	55.5	1839.7118837045
6	1485	56	1844.065977226
6	1486	56.5	1848.4172813307
6	1487	57	1852.7685238142
6	1488	57.5	1857.1245474649
6	1489	58	1861.4775959136
6	1490	58.5	1865.8314805964
6	1491	59	1870.1833637168
6	1492	59.5	1874.4006811352
6	1493	60	1877.8581749013
6	1494	60.5	1881.7474716639
6	1495	61	1886.0634982631
6	1496	61.5	1890.440647183
6	1497	62	1894.7923598661
6	1498	62.5	1899.1637865725
6	1499	63	1903.5218174245
6	1500	63.5	1907.8794477829
6	1501	64	1912.2461129271
6	1502	64.5	1916.6044484593
6	1503	65	1920.9571130626
6	1504	65.5	1925.1996808833
6	1505	66	1929.5593684167
6	1506	66.5	1933.9107909766
6	1507	67	1938.2639543132
6	1508	67.5	1942.6266056013
6	1509	68	1946.9707487051
6	1510	68.5	1951.3157593348
6	1511	69	1955.6733094592
6	1512	69.5	1960.0258806145
6	1513	70	1963.988371341
6	1514	70.5	1967.271371744
6	1515	71	1971.1146937864
6	1516	71.5	1975.4264215742
6	1517	72	1979.7885677466
6	1518	72.5	1984.1448536554
6	1519	73	1988.5080524788
6	1520	73.5	1992.8635246024
6	1521	74	1997.2101879908
6	1522	74.5	2001.5567318412
6	1523	75	2005.9198299769
6	1524	75.5	2010.2616626488
7	2	0.5	360.29248770513
7	3	1	361.13602129091
7	4	1.5	362.5062589664
7	5	2	364.3352372963
7	6	2.5	366.71067855973
7	7	3	369.58261201344
7	8	3.5	372.90590667538
7	9	4	376.75151999667
7	10	4.5	381.10200353526
7	11	5	385.9236433683
7	12	5.5	391.25189150218
7	13	6	397.09307655133
7	14	6.5	403.44417801127
7	15	7	410.23715748917
7	16	7.5	417.44994158298
7	17	8	424.71971334238
7	18	8.5	431.96964991186
7	19	9	439.23027185909
7	20	9.5	446.49580528866
7	21	10	453.75826318469
7	22	10.5	461.01531136036
7	23	11	468.27552554011
7	24	11.5	475.5337386271
7	25	12	482.7941119615
7	26	12.5	490.05108489189
7	27	13	497.30394441355
7	28	13.5	504.57167956606
7	29	14	511.7895232439
7	30	14.5	519.03953384049
7	31	15	526.30160379037
7	32	15.5	533.55485807359
7	33	16	540.80658783298
7	34	16.5	548.05869393703
7	35	17	555.30670423526
7	36	17.5	562.57278118469
7	37	18	569.83576083463
7	38	18.5	577.08640474733
7	39	19	584.34775517788
7	40	19.5	591.61120824516
7	41	20	598.88374377042
7	42	20.5	606.13970067352
7	43	21	613.38882664684
7	44	21.5	620.65775166359
7	45	22	627.91426072363
7	46	22.5	635.16808616463
7	47	23	642.42388973851
7	48	23.5	649.67952763475
7	49	24	656.95169372018
7	50	24.5	664.21745453775
7	51	25	671.47901862208
7	52	25.5	678.73389636446
7	53	26	685.99258249253
7	54	26.5	693.2482074732
7	55	27	700.15127387363
7	56	27.5	706.0995322438
7	57	28	711.40140250884
7	58	28.5	713.50090264063
7	59	29	713.69153064582
7	60	29.5	713.86569899227
7	61	30	714.04020883795
7	62	30.5	714.21464506071
7	63	31	714.38942469377
7	64	31.5	714.56406045612
7	65	32	714.73866677936
7	66	32.5	714.91372648347
7	67	33	715.08851354383
7	146	33.5	715.26326604467
7	147	34	715.43833178747
7	148	34.5	715.61370223667
7	149	35	715.78948970977
7	150	35.5	715.96470717154
7	151	36	716.1402395498
7	152	36.5	716.31571657304
7	153	37	716.49060740042
7	233	37.5	716.66588401143
7	313	38	716.84036521148
7	393	38.5	717.01581455581
7	473	39	717.19067632034
7	474	39.5	717.36545657553
7	475	40	717.54060521815
7	477	40.5	717.71515108366
7	478	41	717.88995807711
7	479	41.5	718.0646887077
7	480	42	718.23924381565
7	557	42.5	718.41429965012
7	795	43	718.58908505924
7	796	43.5	718.76403822657
7	955	44	718.93921597674
7	1114	44.5	719.15372188389
7	1115	45	719.36859831586
7	1116	45.5	719.58352490515
7	1117	46	719.79881685134
7	1118	46.5	720.01407032926
7	1119	47	720.22900944576
7	1291	47.5	720.44449454919
7	1463	48	720.65960077103
7	1466	48.5	720.87479172088
7	1469	49	721.08927270304
7	1470	49.5	721.30444677174
7	1471	50	721.51989920065
7	1472	50.5	721.73409826774
7	1473	51	721.94818563107
7	1476	51.5	722.16349143907
7	1477	52	722.37820849568
7	1478	52.5	722.59347484726
7	1479	53	722.80834221188
7	1480	53.5	723.0237512812
7	1481	54	723.23838348035
7	1482	54.5	723.45289597753
7	1483	55	723.66797796264
7	1484	55.5	723.8831798574
7	1485	56	724.09818374552
7	1486	56.5	724.31304989383
7	1487	57	724.52791299857
7	1488	57.5	724.74301219638
7	1489	58	724.95796447899
7	1490	58.5	725.17295805458
7	1491	59	725.38785279449
7	1492	59.5	725.59610271826
7	1493	60	725.76683276799
7	1494	60.5	725.94830236491
7	1495	61	726.10342382826
7	1496	61.5	726.26039742585
7	1497	62	726.34416091442
7	1498	62.5	726.42830386665
7	1499	63	726.51218897011
7	1500	63.5	726.59606636502
7	1501	64	726.68011766486
7	1502	64.5	726.76400863286
7	1503	65	726.84779044427
7	1504	65.5	726.95245877374
7	1505	66	727.08402530476
7	1506	66.5	727.2153424155
7	1507	67	727.34671206027
7	1508	67.5	727.47836803179
7	1509	68	727.60946546309
7	1510	68.5	727.74058907479
7	1511	69	727.87209110335
7	1512	69.5	728.00344287697
7	1513	70	728.10784678347
7	1514	70.5	728.18306377344
7	1515	71	728.29019937292
7	1516	71.5	728.4348275587
7	1517	72	728.59292192478
7	1518	72.5	728.79428598657
7	1519	73	728.9959695898
7	1520	73.5	729.19729603548
7	1521	74	729.39821530785
7	1522	74.5	729.59912905563
7	1523	75	729.8008080041
7	1524	75.5	730.00150398258
8	3	1	0.96315724250003
8	4	1.5	1.4163082134939
8	5	2	1.8730117260368
8	6	2.5	2.3571391038766
8	7	3	2.8579845126981
8	8	3.5	3.226170594006
8	9	4	3.6683751018142
8	10	4.5	4.096395278115
8	11	5	4.5673459860759
8	12	5.5	5.0041966364236
8	13	6	5.4528541425599
8	14	6.5	5.8326756184112
8	15	7	6.3185249040166
8	16	7.5	6.8164614663955
8	17	8	7.2483342648793
8	18	8.5	7.6306189449347
8	19	9	8.0300661469979
8	20	9.5	8.4971491859045
8	21	10	8.9360353771627
8	22	10.5	9.3978944510204
8	23	11	9.8634379853105
8	24	11.5	10.317759716001
8	25	12	10.714327577011
8	26	12.5	11.151482744485
8	27	13	11.636657540172
8	28	13.5	12.128458942918
8	29	14	12.574270750012
8	30	14.5	13.063242460064
8	31	15	13.48613080303
8	32	15.5	13.890868600824
8	33	16	14.428135147968
8	34	16.5	14.888480121305
8	35	17	15.285900480401
8	36	17.5	15.704661329704
8	37	18	16.182874826592
8	38	18.5	16.576163220711
8	39	19	17.04590348
8	40	19.5	17.511949481893
8	41	20	17.948874973443
8	42	20.5	18.398306984392
8	43	21	18.875087373511
8	44	21.5	19.375399535641
8	45	22	19.816389375537
8	46	22.5	20.27372128587
8	47	23	20.748558687948
8	48	23.5	21.214605076791
8	49	24	21.723559591782
8	50	24.5	22.158030788045
8	51	25	22.180865816828
8	52	25.5	22.164680755404
8	53	26	22.164840675383
8	54	26.5	22.218768838248
8	55	27	22.171807797495
8	56	27.5	22.215426433589
8	57	28	22.199853998441
8	58	28.5	22.167198591596
8	59	29	22.16194917758
8	60	29.5	22.206758969524
8	61	30	22.178201122959
8	62	30.5	22.214963697381
8	63	31	22.198859407622
8	64	31.5	22.2038517011
8	65	32	22.186262325868
8	66	32.5	22.202624620232
8	67	33	22.219863656233
8	146	33.5	22.167788052191
8	147	34	22.202800164078
8	148	34.5	22.217187748034
8	149	35	22.195973929828
8	150	35.5	22.211866106712
8	151	36	22.170279956269
8	152	36.5	22.163523615594
8	153	37	22.168545345282
8	233	37.5	22.167798402975
8	313	38	22.186826498653
8	393	38.5	22.193691120511
8	473	39	22.185229519703
8	474	39.5	22.177593529359
8	475	40	22.19146439536
8	477	40.5	22.162687323107
8	478	41	22.197801454882
8	479	41.5	22.217959166225
8	480	42	22.204708646093
8	557	42.5	22.200998968482
8	795	43	22.165243705269
8	796	43.5	22.2156477495
8	955	44	22.215933352709
8	1114	44.5	22.165281229946
8	1115	45	22.195793533404
8	1116	45.5	22.168840515916
8	1117	46	22.177717501842
8	1118	46.5	22.185965690343
8	1119	47	22.214475051789
8	1291	47.5	22.215324746016
8	1463	48	22.167504116255
8	1466	48.5	22.193515154943
8	1469	49	22.177530833464
8	1470	49.5	22.169618578316
8	1471	50	22.206625824641
8	1472	50.5	21.580384363871
8	1473	51	19.616930420607
8	1476	51.5	17.616930420607
8	1477	52	15.616930420607
8	1478	52.5	13.61776835161
8	1479	53	11.61776835161
8	1480	53.5	9.6177683516095
8	1481	54	7.621709618162
8	1482	54.5	6.1442299241564
8	1483	55	6.7442299241564
8	1484	55.5	7.255018803835
8	1485	56	7.7594606428632
8	1486	56.5	8.2108324556184
8	1487	57	8.7083027334084
8	1488	57.5	9.1773656754932
8	1489	58	9.6408373741704
8	1490	58.5	10.031210490148
8	1491	59	10.484874080326
8	1492	59.5	10.936389134316
8	1493	60	11.464534922367
8	1494	60.5	11.840224058138
8	1495	61	12.359627453148
8	1496	61.5	12.792568083814
8	1497	62	13.280919353938
8	1498	62.5	13.686657109763
8	1499	63	14.05839870647
8	1500	63.5	14.460127212111
8	1501	64	14.901902201068
8	1502	64.5	15.351649767076
8	1503	65	15.798307207603
8	1504	65.5	16.258607918065
8	1505	66	16.628750642347
8	1506	66.5	16.650571294082
8	1507	67	16.616772580417
8	1508	67.5	16.650385994595
8	1509	68	16.654690879406
8	1510	68.5	16.664125773064
8	1511	69	16.651049871976
8	1512	69.5	16.62023888641
8	1513	70	16.626875846363
8	1514	70.5	16.616585292728
8	1515	71	16.641551270909
8	1516	71.5	16.641791198403
8	1517	72	16.653362404625
8	1518	72.5	16.635026598955
8	1519	73	16.638479435425
8	1520	73.5	16.632992752376
8	1521	74	16.667005961989
8	1522	74.5	16.644645532873
8	1523	75	16.660747380229
8	1524	75.5	16.633879308454
9	3	1	2.0116060111359
9	4	1.5	3.0081261322249
9	5	2	3.9596735773885
9	6	2.5	4.9147222280081
9	7	3	5.889326381562
9	8	3.5	6.8788821249406
9	9	4	7.7938837797867
9	10	4.5	8.7023372510245
9	11	5	8.6754488682753
9	12	5.5	8.6928926480847
9	13	6	8.6739304756915
9	14	6.5	8.6486439504597
9	15	7	8.6071240203461
9	16	7.5	8.6096484815405
9	17	8	8.6765494632844
9	18	8.5	8.691906216222
9	19	9	8.6895699835668
9	20	9.5	8.6917188767746
9	21	10	8.6876668885426
9	22	10.5	8.6548053989519
9	23	11	8.6498789012042
9	24	11.5	9.3105579491106
9	25	12	10.306217582808
9	26	12.5	11.226979594259
9	27	13	12.140981362973
9	28	13.5	13.117551298785
9	29	14	13.969481934591
9	30	14.5	13.8435789962
9	31	15	11.61471192603
9	32	15.5	10.5303115453
9	33	16	8.727996280003
9	34	16.5	8.6786673143745
9	35	17	8.6113086891018
9	36	17.5	8.6799250831228
9	37	18	8.7312646191504
9	38	18.5	8.6191957829014
9	39	19	8.6255628256739
9	40	19.5	8.640095662757
9	41	20	8.7224545112398
9	42	20.5	8.7102991879225
9	43	21	8.6680538501061
9	44	21.5	8.687159623318
9	45	22	8.6143776310661
9	46	22.5	8.701649005111
9	47	23	8.694289473822
9	48	23.5	8.6238870165713
9	49	24	8.6729226478452
9	50	24.5	8.6525806385588
9	51	25	8.6307179475512
9	52	25.5	8.6969431934116
9	53	26	8.6335482753773
9	54	26.5	6.8635875598246
9	55	27	7.4535875598246
9	56	27.5	8.6192236613829
9	57	28	9.7195325001443
9	58	28.5	10.723088909916
9	59	29	11.642868467171
9	60	29.5	12.546221441766
9	61	30	13.645800116907
9	62	30.5	14.559675122629
9	63	31	14.495002092735
9	64	31.5	14.541947132022
9	65	32	14.435276740821
9	66	32.5	14.540433851882
9	67	33	14.548035021111
9	146	33.5	14.47648254187
9	147	34	14.488430435123
9	148	34.5	14.498726023423
9	149	35	14.506795355849
9	150	35.5	14.456248789478
9	151	36	14.534164740203
9	152	36.5	14.453060064965
9	153	37	14.550677891778
9	233	37.5	14.437574530322
9	313	38	14.500435655181
9	393	38.5	14.486342127523
9	473	39	14.5276124709
9	474	39.5	14.533853154012
9	475	40	14.481712085273
9	477	40.5	14.444666899104
9	478	41	14.477096496198
9	479	41.5	14.433516102244
9	480	42	14.500294024718
9	557	42.5	14.460819787759
9	795	43	12.996012484405
9	796	43.5	10.757507540396
9	955	44	8.5075075403963
9	1114	44.5	6.2575075403963
9	1115	45	7.5575075403963
9	1116	45.5	8.5096150686278
9	1117	46	9.460639632406
9	1118	46.5	10.345157276952
9	1119	47	11.201046515362
9	1291	47.5	12.154825661761
9	1463	48	13.017918653771
9	1466	48.5	14.03233964305
9	1469	49	14.501747551862
9	1470	49.5	14.491342554851
9	1471	50	14.506633412178
9	1472	50.5	14.548575382772
9	1473	51	14.54822373191
9	1476	51.5	14.527033428179
9	1477	52	14.512090891599
9	1478	52.5	14.554619557992
9	1479	53	14.447408475936
9	1480	53.5	14.53172453887
9	1481	54	14.480762663406
9	1482	54.5	14.438121919028
9	1483	55	14.558232903694
9	1484	55.5	14.542846894631
9	1485	56	14.554609659483
9	1486	56.5	14.477540882199
9	1487	57	14.552038549333
9	1488	57.5	14.437921243931
9	1489	58	14.543844697994
9	1490	58.5	14.561337858656
9	1491	59	14.44387854241
9	1492	59.5	14.43810947138
9	1493	60	14.526182060141
9	1494	60.5	14.466360179844
9	1495	61	14.437450976564
9	1496	61.5	14.505227556291
9	1497	62	14.526362177435
9	1498	62.5	14.55133236068
9	1499	63	14.49503661455
9	1500	63.5	14.529871659581
9	1501	64	14.439649571012
9	1502	64.5	14.483768474983
9	1503	65	14.506621771868
9	1504	65.5	14.494738701437
9	1505	66	14.441553623079
9	1506	66.5	14.514941137514
9	1507	67	14.443122876046
9	1508	67.5	14.512384618378
9	1509	68	14.53218452505
9	1510	68.5	14.500015057576
9	1511	69	14.513352883699
9	1512	69.5	14.535425908015
9	1513	70	14.492530892446
9	1514	70.5	14.489375022831
9	1515	71	14.46081409977
9	1516	71.5	14.521259556375
9	1517	72	14.449552068493
9	1518	72.5	14.556927578434
9	1519	73	14.549219611652
9	1520	73.5	14.520987667976
9	1521	74	14.433452759012
9	1522	74.5	14.503778542193
9	1523	75	14.55948699579
9	1524	75.5	14.555067569613
10	3	1	2.1311671961367
10	4	1.5	3.1435446060073
10	5	2	4.0758362758249
10	6	2.5	4.9786327199658
10	7	3	5.9862471878199
10	8	3.5	6.8543556765883
10	9	4	7.8430037378912
10	10	4.5	8.8951558063409
10	11	5	9.8639746389535
10	12	5.5	10.884495384309
10	13	6	11.750328246459
10	14	6.5	12.627083729126
10	15	7	13.680306829451
10	16	7.5	14.66311544073
10	17	8	15.631815495721
10	18	8.5	15.944889718909
10	19	9	15.933076143798
10	20	9.5	16.02704194391
10	21	10	16.012680860139
10	22	10.5	16.046975723119
10	23	11	15.991224413538
10	24	11.5	15.957330957596
10	25	12	16.006943297596
10	26	12.5	16.009157720807
10	27	13	15.938132288733
10	28	13.5	15.992241283309
10	29	14	16.031916167154
10	30	14.5	15.994183716753
10	31	15	16.050449797989
10	32	15.5	15.941528713664
10	33	16	16.035602408029
10	34	16.5	15.973466740693
10	35	17	16.029840288526
10	36	17.5	15.964652343749
10	37	18	16.008472060718
10	38	18.5	15.930056551905
10	39	19	16.034577265534
10	40	19.5	15.948862201169
10	41	20	15.927917716687
10	42	20.5	16.009976792937
10	43	21	15.924553301391
10	44	21.5	15.971704688843
10	45	22	15.946442086124
10	46	22.5	16.03932738042
10	47	23	15.927726235763
10	48	23.5	15.9891791369
10	49	24	15.975600421213
10	50	24.5	16.029597706406
10	51	25	15.938564928819
10	52	25.5	16.017461132803
10	53	26	15.986677580064
10	54	26.5	15.991367802329
10	55	27	15.941091452837
10	56	27.5	15.935278603801
10	57	28	15.940887910151
10	58	28.5	16.015791453997
10	59	29	16.044431088586
10	60	29.5	15.951873005662
10	61	30	16.049907877285
10	62	30.5	15.949109528975
10	63	31	15.976399861407
10	64	31.5	16.039754499081
10	65	32	15.938170450274
10	66	32.5	16.040572454352
10	67	33	15.990110049562
10	146	33.5	16.007202510792
10	147	34	16.044637274847
10	148	34.5	15.966868247155
10	149	35	15.996379570738
10	150	35.5	15.960602580668
10	151	36	15.972599685637
10	152	36.5	15.933823426839
10	153	37	15.944410204946
10	233	37.5	15.951852494351
10	313	38	16.025625474553
10	393	38.5	16.007644835604
10	473	39	15.980006347718
10	474	39.5	16.047505428088
10	475	40	16.038682358186
10	477	40.5	16.017372143357
10	478	41	15.98595333556
10	479	41.5	15.999757634413
10	480	42	15.967693241095
10	557	42.5	16.016159347687
10	795	43	15.95098133998
10	796	43.5	15.98331078985
10	955	44	15.949522169975
10	1114	44.5	15.938722888315
10	1115	45	15.994377072174
10	1116	45.5	15.960719714193
10	1117	46	16.036747667473
10	1118	46.5	16.003411920378
10	1119	47	15.926190744492
10	1291	47.5	16.028492913561
10	1463	48	15.954295847065
10	1466	48.5	15.930087008821
10	1469	49	16.050765266624
10	1470	49.5	15.946540788627
10	1471	50	16.047154875864
10	1472	50.5	16.044851440415
10	1473	51	15.954742200878
10	1476	51.5	15.988267603103
10	1477	52	15.933767139437
10	1478	52.5	16.010416099606
10	1479	53	16.041816550598
10	1480	53.5	15.990570030597
10	1481	54	16.027989416488
10	1482	54.5	15.979148138783
10	1483	55	15.950659864785
10	1484	55.5	15.991674751526
10	1485	56	15.997690081024
10	1486	56.5	15.981501906892
10	1487	57	16.04799563116
10	1488	57.5	15.963222563442
10	1489	58	16.038185222203
10	1490	58.5	15.936626598835
10	1491	59	15.984057411778
10	1492	59.5	16.003633745774
10	1493	60	15.963876459068
10	1494	60.5	16.045317722033
10	1495	61	16.015014840826
10	1496	61.5	15.959403668982
10	1497	62	16.044345152635
10	1498	62.5	15.946472504267
10	1499	63	16.002355689335
10	1500	63.5	16.018551534675
10	1501	64	15.939434887635
10	1502	64.5	15.991640690449
10	1503	65	15.997804384644
10	1504	65.5	16.016177602611
10	1505	66	16.00453357809
10	1506	66.5	15.995890068007
10	1507	67	16.023923876675
10	1508	67.5	15.991254406113
10	1509	68	15.994018678272
10	1510	68.5	15.988070448595
10	1511	69	15.93676252109
10	1512	69.5	15.967154056163
10	1513	70	16.011636202936
10	1514	70.5	15.970438039953
10	1515	71	15.987461896255
10	1516	71.5	15.977461426335
10	1517	72	16.03284261765
10	1518	72.5	16.021682521042
10	1519	73	16.033256374903
10	1520	73.5	15.99625723908
10	1521	74	16.00028482378
10	1522	74.5	15.96132482237
10	1523	75	15.962744717002
10	1524	75.5	16.0086616574
11	3	1	2.1601955810489
11	4	1.5	3.1144628968242
11	5	2	4.1105820955232
11	6	2.5	5.2289444127435
11	7	3	6.0858094900696
11	8	3.5	7.0473769874488
11	9	4	8.1433097840416
11	10	4.5	9.173221089911
11	11	5	10.05867896536
11	12	5.5	11.148680243594
11	13	6	12.171584089579
11	14	6.5	13.106705217048
11	15	7	13.99409036707
11	16	7.5	14.543085340356
11	17	8	14.602687780525
11	18	8.5	14.517289030695
11	19	9	14.570008487972
11	20	9.5	14.575677133071
11	21	10	14.560443590894
11	22	10.5	14.61913622578
11	23	11	14.54825024424
11	24	11.5	14.519225431246
11	25	12	14.543037858788
11	26	12.5	14.612220510697
11	27	13	14.538531441971
11	28	13.5	14.588886783152
11	29	14	14.586384882714
11	30	14.5	14.525227403968
11	31	15	14.635057979818
11	32	15.5	14.556876347599
11	33	16	14.55173467303
11	34	16.5	14.521861440282
11	35	17	14.524333486348
11	36	17.5	14.61959528806
11	37	18	14.517940223239
11	38	18.5	14.534069228821
11	39	19	14.557720358247
11	40	19.5	14.618730225999
11	41	20	14.640260186026
11	42	20.5	14.559702563066
11	43	21	14.570991012117
11	44	21.5	14.576682747238
11	45	22	14.547124937753
11	46	22.5	14.542483149316
11	47	23	14.608776330758
11	48	23.5	14.563148345725
11	49	24	14.584590232608
11	50	24.5	14.596463933828
11	51	25	14.632218628198
11	52	25.5	14.640536238936
11	53	26	14.56424671979
11	54	26.5	14.59985831915
11	55	27	12.99679047554
11	56	27.5	11.634470266352
11	57	28	11.410184876751
11	58	28.5	9.1768068300144
11	59	29	8.6692932682091
11	60	29.5	8.6545815453751
11	61	30	8.7020650549073
11	62	30.5	8.6871573199102
11	63	31	8.6874157221059
11	64	31.5	8.6518976251481
11	65	32	8.7110292333926
11	66	32.5	8.774150936534
11	67	33	8.7104188366423
11	146	33.5	8.6722553810503
11	147	34	8.7317063623786
11	148	34.5	8.6881515744424
11	149	35	8.7715638518802
11	150	35.5	8.7794007455933
11	151	36	8.7632931033967
11	152	36.5	8.7074452181233
11	153	37	8.693996891219
11	233	37.5	8.7769655293066
11	313	38	8.6914618702515
11	393	38.5	8.7105710856596
11	473	39	8.6624263996587
11	474	39.5	8.6731065072774
11	475	40	8.6904158540469
11	477	40.5	8.6650666580468
11	478	41	8.6606381080093
11	479	41.5	8.6934913809624
11	480	42	8.6606514358803
11	557	42.5	8.7544216800577
11	795	43	8.7445978709499
11	796	43.5	8.7012716774506
11	955	44	8.7185145582704
11	1114	44.5	8.667836338247
11	1115	45	8.6909460607383
11	1116	45.5	8.7075279357404
11	1117	46	8.7485729695743
11	1118	46.5	8.7242872684801
11	1119	47	8.7322103780022
11	1291	47.5	8.7531157424467
11	1463	48	8.7799054334385
11	1466	48.5	8.7732399426869
11	1469	49	8.6577463098129
11	1470	49.5	8.7618389691369
11	1471	50	8.7209031851383
11	1472	50.5	8.6769899024165
11	1473	51	8.6641497856428
11	1476	51.5	8.6936713287866
11	1477	52	8.6623799932099
11	1478	52.5	8.7401000922525
11	1479	53	8.7784088976987
11	1480	53.5	8.7419353317845
11	1481	54	8.7384252621073
11	1482	54.5	8.6676370343196
11	1483	55	8.7160342569442
11	1484	55.5	8.715332665907
11	1485	56	8.780635785356
11	1486	56.5	8.6968886990406
11	1487	57	8.6968477597766
11	1488	57.5	8.6854054624381
11	1489	58	8.779265278145
11	1490	58.5	8.7618051253239
11	1491	59	8.6807704321763
11	1492	59.5	7.8473887787453
11	1493	60	7.0173887787453
11	1494	60.5	8.2610976064714
11	1495	61	8.744770626738
11	1496	61.5	8.7614393422499
11	1497	62	8.7142987736038
11	1498	62.5	8.7401116884619
11	1499	63	8.6869030514129
11	1500	63.5	8.7490637344195
11	1501	64	8.7702039589852
11	1502	64.5	8.7444894748836
11	1503	65	8.7359588133779
11	1504	65.5	8.7609916175695
11	1505	66	8.7728298290635
11	1506	66.5	8.7583424186244
11	1507	67	8.7032469455435
11	1508	67.5	8.7681611490066
11	1509	68	8.7772734280399
11	1510	68.5	8.7244816663003
11	1511	69	8.6597574304536
11	1512	69.5	8.7010967854995
11	1513	70	7.0643598282226
11	1514	70.5	6.9443598282226
11	1515	71	8.1501582665794
11	1516	71.5	8.7750914363077
11	1517	72	8.7280203766029
11	1518	72.5	8.6893657501208
11	1519	73	8.741511089702
11	1520	73.5	8.6624551426808
11	1521	74	8.6534976375897
11	1522	74.5	8.663464951718
11	1523	75	8.7583733426969
11	1524	75.5	8.7149393940557
12	4	1.5	0.90630194198784
12	5	2	0.91340702508576
12	6	2.5	0.96825475567952
12	7	3	1.001690817643
12	8	3.5	0.73637216261588
12	9	4	0.8844090156164
12	10	4.5	0.85604035260156
12	11	5	0.94190141592175
12	12	5.5	0.87370130069554
12	13	6	0.89731501227245
12	14	6.5	0.7596429517027
12	15	7	0.97169857121073
12	16	7.5	0.99587312475778
12	17	8	0.86374559696764
12	18	8.5	0.76456936011091
12	19	9	0.79889440412633
12	20	9.5	0.93416607781313
12	21	10	0.87777238251641
12	22	10.5	0.92371814771554
12	23	11	0.93108706858008
12	24	11.5	0.90864346138201
12	25	12	0.79313572201877
12	26	12.5	0.87431033494881
12	27	13	0.97034959137439
12	28	13.5	0.98360280549153
12	29	14	0.89162361418827
12	30	14.5	0.97794342010281
12	31	15	0.84577668593264
12	32	15.5	0.80947559558786
12	33	16	1.0745330942888
12	34	16.5	0.9206899466738
12	35	17	0.79484071819111
12	36	17.5	0.83752169860526
12	37	18	0.95642699377611
12	38	18.5	0.78657678823919
12	39	19	0.93948051857763
12	40	19.5	0.93209200378508
12	41	20	0.87385098310188
12	42	20.5	0.89886402189732
12	43	21	0.95356077823789
12	44	21.5	1.0006243242603
12	45	22	0.88197967979127
12	46	22.5	0.91466382066721
12	47	23	0.94967480415479
12	48	23.5	0.93209277768621
12	49	24	1.017909029983
12	50	24.5	0.86894239252434
12	51	25	0.045670057566518
12	52	25.5	-0.032370122848079
12	53	26	0.00031983995810236
12	54	26.5	0.10785632573068
12	55	27	-0.093922081505873
12	56	27.5	0.087237272188062
12	57	28	-0.031144870296117
12	58	28.5	-0.065310813691468
12	59	29	-0.010498828031125
12	60	29.5	0.089619583887981
12	61	30	-0.057115693129596
12	62	30.5	0.073525148844347
12	63	31	-0.032208579517906
12	64	31.5	0.00998458695598
12	65	32	-0.035178750464688
12	66	32.5	0.032724588727575
12	67	33	0.034478072002528
12	146	33.5	-0.10415120808408
12	147	34	0.070024223774674
12	148	34.5	0.028775167912244
12	149	35	-0.042427636412903
12	150	35.5	0.031784353768451
12	151	36	-0.083172300886361
12	152	36.5	-0.013512681350115
12	153	37	0.01004345937632
12	233	37.5	-0.0014938846137369
12	313	38	0.03805619135499
12	393	38.5	0.013729243716227
12	473	39	-0.016923201614993
12	474	39.5	-0.01527198068797
12	475	40	0.027741732001303
12	477	40.5	-0.05755414450541
12	478	41	0.070228263549502
12	479	41.5	0.040315422685815
12	480	42	-0.026501040263099
12	557	42.5	-0.0074193552229573
12	795	43	-0.071510526426131
12	796	43.5	0.1008080884628
12	955	44	0.00057120641693587
12	1114	44.5	-0.10130424552597
12	1115	45	0.061024606917051
12	1116	45.5	-0.053906034976244
12	1117	46	0.017753971852365
12	1118	46.5	0.016496377000585
12	1119	47	0.057018722891804
12	1291	47.5	0.0016993884555987
12	1463	48	-0.095641259523106
12	1466	48.5	0.052022077376023
12	1469	49	-0.031968642957509
12	1470	49.5	-0.01582451029681
12	1471	50	0.074014492649589
12	1472	50.5	-1.2524829215399
12	1473	51	-3.9269078865272
12	1476	51.5	-4
12	1477	52	-4
12	1478	52.5	-3.9983241379949
12	1479	53	-4
12	1480	53.5	-4
12	1481	54	-3.9921174668951
12	1482	54.5	-2.9549593880111
12	1483	55	1.2
12	1484	55.5	1.0215777593572
12	1485	56	1.0088836780563
12	1486	56.5	0.90274362551048
12	1487	57	0.99494055557995
12	1488	57.5	0.9381258841697
12	1489	58	0.92694339735433
12	1490	58.5	0.78074623195454
12	1491	59	0.90732718035578
12	1492	59.5	0.90303010798059
12	1493	60	1.0562915761024
12	1494	60.5	0.75137827154249
12	1495	61	1.0388067900203
12	1496	61.5	0.86588126133195
12	1497	62	0.97670254024677
12	1498	62.5	0.81147551164962
12	1499	63	0.74348319341428
12	1500	63.5	0.80345701128244
12	1501	64	0.88354997791349
12	1502	64.5	0.89949513201601
12	1503	65	0.89331488105468
12	1504	65.5	0.92060142092408
12	1505	66	0.74028544856414
12	1506	66.5	0.043641303470359
12	1507	67	-0.067597427330909
12	1508	67.5	0.067226828355345
12	1509	68	0.0086097696237246
12	1510	68.5	0.018869787314905
12	1511	69	-0.026151802176607
12	1512	69.5	-0.061621971130371
12	1513	70	0.013273919904606
12	1514	70.5	-0.020581107269976
12	1515	71	0.049931956361981
12	1516	71.5	0.00047985498792968
12	1517	72	0.023142412444578
12	1518	72.5	-0.036671611340715
12	1519	73	0.0069056729413575
12	1520	73.5	-0.010973366098476
12	1521	74	0.068026419226079
12	1522	74.5	-0.044720858233049
12	1523	75	0.032203694712365
12	1524	75.5	-0.053736143549898
13	4	1.5	1.4879334530051
13	5	2	1.6132692118776
13	6	2.5	1.774955217919
13	7	3	1.9399645462544
13	8	3.5	1.8412670129931
13	9	4	2.0734096271212
13	10	4.5	2.1590699722102
13	11	5	2.3759099330688
13	12	5.5	2.4166726257484
13	13	6	2.5672189760482
13	14	6.5	2.4775098225192
13	15	7	2.917777159353
13	16	7.5	3.1040721566467
13	17	8	3.0036717065378
13	18	8.5	2.9251724004981
13	19	9	3.0912608129898
13	20	9.5	3.4895749885006
13	21	10	3.4973498690651
13	22	10.5	3.7321536620711
13	23	11	3.8877343570021
13	24	11.5	3.9686114283298
13	25	12	3.7884802178906
13	26	12.5	4.125769287589
13	27	13	4.5381993626689
13	28	13.5	4.7349194209254
13	29	14	4.6022211168677
13	30	14.5	5.0249056725594
13	31	15	4.7360653077296
13	32	15.5	4.7375822630564
13	33	16	5.8198207003021
13	34	16.5	5.436646094345
13	35	17	5.1054553725593
13	36	17.5	5.3952794666825
13	37	18	6.0123039844926
13	38	18.5	5.4726451858172
13	39	19	6.2492831936675
13	40	19.5	6.3846666731497
13	41	20	6.2900284828632
13	42	20.5	6.5584059619124
13	43	21	6.979394747501
13	44	21.5	7.3889868488056
13	45	22	6.9969201746262
13	46	22.5	7.3268128966839
13	47	23	7.6848236919857
13	48	23.5	7.7809399716037
13	49	24	8.4341171123639
13	50	24.5	7.8241302729532
13	51	25	3.4322488973582
13	52	25.5	3.0122184874303
13	53	26	3.186867571593
13	54	26.5	3.7726616397231
13	55	27	2.6845802681854
13	56	27.5	3.6615635820428
13	57	28	3.024992586619
13	58	28.5	2.8366842640672
13	59	29	3.1285514041701
13	60	29.5	3.6725279413924
13	61	30	2.8823434043574
13	62	30.5	3.5880561904034
13	63	31	3.0191254708464
13	64	31.5	3.2457905438584
13	65	32	3.0010149873039
13	66	32.5	3.3672386895244
13	67	33	3.3799531015792
13	146	33.5	2.6292813398718
13	147	34	3.5668582032497
13	148	34.5	3.348900384219
13	149	35	2.9639505719801
13	150	35.5	3.3639873125314
13	151	36	2.7417694941054
13	152	36.5	3.1127394693344
13	153	37	3.2395006499856
13	233	37.5	3.1777235201955
13	313	38	3.3927034619221
13	393	38.5	3.2639172978825
13	473	39	3.0984388906559
13	474	39.5	3.1058859110401
13	475	40	3.3384393712484
13	477	40.5	2.8773534054774
13	478	41	3.5669414912943
13	479	41.5	3.4108410964988
13	480	42	3.0507042290268
13	557	42.5	3.1521375792444
13	795	43	2.803236763137
13	796	43.5	3.7342669400939
13	955	44	3.1976544508641
13	1114	44.5	2.6440899706511
13	1115	45	3.5173044007663
13	1116	45.5	2.8978934453624
13	1117	46	3.282426432984
13	1118	46.5	3.2772602153036
13	1119	47	3.4995868672501
13	1291	47.5	3.203581931079
13	1463	48	2.6746993826238
13	1466	48.5	3.4686986796227
13	1469	49	3.0166345024951
13	1470	49.5	3.1014917908717
13	1471	50	3.588985168624
13	1472	50.5	0.973
13	1473	51	0.973
13	1476	51.5	0.973
13	1477	52	0.973
13	1478	52.5	0.973
13	1479	53	0.973
13	1480	53.5	0.973
13	1481	54	0.973
13	1482	54.5	0.973
13	1483	55	3.4141109847635
13	1484	55.5	3.2814462077323
13	1485	56	3.4141177357999
13	1486	56.5	3.3435861168832
13	1487	57	3.679177319692
13	1488	57.5	3.6990161743689
13	1489	58	3.8115514250171
13	1490	58.5	3.574623113366
13	1491	59	4.0149528377421
13	1492	59.5	4.1384960828087
13	1493	60	4.7207339469757
13	1494	60.5	3.9785647360438
13	1495	61	4.9749082827248
13	1496	61.5	4.5900284212514
13	1497	62	5.0932048256648
13	1498	62.5	4.6837289706416
13	1499	63	4.5638263400446
13	1500	63.5	4.8868280087037
13	1501	64	5.3077140996744
13	1502	64.5	5.512692705609
13	1503	65	5.6375643270517
13	1504	65.5	5.8985598466001
13	1505	66	5.3036540326375
13	1506	66.5	2.514788980006
13	1507	67	2.0647401202388
13	1508	67.5	2.6094065056249
13	1509	68	2.3747387509071
13	1510	68.5	2.4171439437234
13	1511	69	2.2347809077138
13	1512	69.5	2.0890507257155
13	1513	70	2.3898942255788
13	1514	70.5	2.2530012219597
13	1515	71	2.5387956980115
13	1516	71.5	2.3404924317023
13	1517	72	2.4328959802351
13	1518	72.5	2.1907045674063
13	1519	73	2.3658448702598
13	1520	73.5	2.2934812052513
13	1521	74	2.6149675009965
13	1522	74.5	2.1595332568503
13	1523	75	2.4702445015425
13	1524	75.5	2.1221636836329
14	4	1.5	1.9930402421779
14	5	2	1.9030948903272
14	6	2.5	1.9100973012391
14	7	3	1.9492083071079
14	8	3.5	1.9791114867572
14	9	4	1.8300033096923
14	10	4.5	1.8169069424755
14	11	5	-0.053776765498334
14	12	5.5	0.034887559618802
14	13	6	-0.037924344786443
14	14	6.5	-0.050573050463573
14	15	7	-0.083039860227146
14	16	7.5	0.0050489223888164
14	17	8	0.13380196348764
14	18	8.5	0.030713505875319
14	19	9	-0.0046724653104313
14	20	9.5	0.004297786415556
14	21	10	-0.0081039764639002
14	22	10.5	-0.065722979181448
14	23	11	-0.0098529954953115
14	24	11.5	1.3213580958126
14	25	12	1.9913192673959
14	26	12.5	1.8415240229014
14	27	13	1.8280035374267
14	28	13.5	1.9531398716243
14	29	14	1.7038612716133
14	30	14.5	-0.25180587678362
14	31	15	-4.4577341403393
14	32	15.5	-2.1688007614607
14	33	16	-3.604630530593
14	34	16.5	-0.098657931257041
14	35	17	-0.13471725054551
14	36	17.5	0.13723278804217
14	37	18	0.10267907205504
14	38	18.5	-0.22413767249789
14	39	19	0.012734085544945
14	40	19.5	0.029065674166194
14	41	20	0.16471769696567
14	42	20.5	-0.02431064663455
14	43	21	-0.084490675632843
14	44	21.5	0.038211546423845
14	45	22	-0.14556398450397
14	46	22.5	0.17454274808988
14	47	23	-0.014719062577932
14	48	23.5	-0.1408049145015
14	49	24	0.098071262547748
14	50	24.5	-0.040684018572794
14	51	25	-0.043725382015108
14	52	25.5	0.13245049172081
14	53	26	-0.12678983606864
14	54	26.5	-3.5399214311054
14	55	27	1.18
14	56	27.5	2.3312722031167
14	57	28	2.2006176775228
14	58	28.5	2.0071128195431
14	59	29	1.8395591145102
14	60	29.5	1.8067059491901
14	61	30	2.1991573502822
14	62	30.5	1.8277500114438
14	63	31	-0.12934605978895
14	64	31.5	0.093890078575349
14	65	32	-0.21334078240208
14	66	32.5	0.21031422212254
14	67	33	0.015202338458039
14	146	33.5	-0.14310495848302
14	147	34	0.023895786507055
14	148	34.5	0.020591176599265
14	149	35	0.016138664851898
14	150	35.5	-0.10109313274268
14	151	36	0.15583190144971
14	152	36.5	-0.16220935047604
14	153	37	0.19523565362673
14	233	37.5	-0.22620672291145
14	313	38	0.12572224971839
14	393	38.5	-0.028187055317687
14	473	39	0.082540686754509
14	474	39.5	0.012481366223657
14	475	40	-0.10428213747684
14	477	40.5	-0.07409037233796
14	478	41	0.064859194187449
14	479	41.5	-0.08716078790836
14	480	42	0.13355584494769
14	557	42.5	-0.078948473916387
14	795	43	-2.9296146067086
14	796	43.5	-4.4770098880176
14	955	44	-4.5
14	1114	44.5	-4.5
14	1115	45	2.6
14	1116	45.5	1.9042150564631
14	1117	46	1.9020491275564
14	1118	46.5	1.769035289092
14	1119	47	1.7117784768203
14	1291	47.5	1.9075582927978
14	1463	48	1.7261859840201
14	1466	48.5	2.0288419785583
14	1469	49	0.93881581762386
14	1470	49.5	-0.020809994023292
14	1471	50	0.03058171465527
14	1472	50.5	0.083883941187526
14	1473	51	-0.00070330172311728
14	1476	51.5	-0.042380607463418
14	1477	52	-0.029885073159821
14	1478	52.5	0.085057332785798
14	1479	53	-0.21442216411233
14	1480	53.5	0.16863212586846
14	1481	54	-0.10192375092767
14	1482	54.5	-0.085281488755719
14	1483	55	0.24022196933161
14	1484	55.5	-0.03077201812528
14	1485	56	0.023525529704056
14	1486	56.5	-0.15413755456917
14	1487	57	0.14899533426855
14	1488	57.5	-0.22823461080436
14	1489	58	0.21184690812603
14	1490	58.5	0.034986321325412
14	1491	59	-0.23491863249335
14	1492	59.5	-0.011538142058996
14	1493	60	0.17614517752081
14	1494	60.5	-0.11964376059361
14	1495	61	-0.057818406559527
14	1496	61.5	0.13555315945298
14	1497	62	0.042269242289475
14	1498	62.5	0.049940366488883
14	1499	63	-0.11259149225894
14	1500	63.5	0.069670090060679
14	1501	64	-0.18044417713769
14	1502	64.5	0.088237807941624
14	1503	65	0.045706593771463
14	1504	65.5	-0.023766140863298
14	1505	66	-0.10637015671469
14	1506	66.5	0.14677502886858
14	1507	67	-0.1436365229357
14	1508	67.5	0.13852348466404
14	1509	68	0.039599813343958
14	1510	68.5	-0.064338934947738
14	1511	69	0.026675652246922
14	1512	69.5	0.044146048631521
14	1513	70	-0.085790031137876
14	1514	70.5	-0.0063117392314602
14	1515	71	-0.057121846121738
14	1516	71.5	0.12089091320988
14	1517	72	-0.1434149757633
14	1518	72.5	0.21475101988297
14	1519	73	-0.015415933565237
14	1520	73.5	-0.056463887351562
14	1521	74	-0.1750698179286
14	1522	74.5	0.14065156636294
14	1523	75	0.11141690719407
14	1524	75.5	-0.0088388523552574
15	4	1.5	2.7024978186224
15	5	2	3.1228378106583
15	6	2.5	3.6204637772488
15	7	3	4.1795362644611
15	8	3.5	4.7528987655501
15	9	4	4.9670552711745
15	10	4.5	5.4012137681428
15	11	5	1.4763863221932
15	12	5.5	1.6631169338868
15	13	6	1.5094392617643
15	14	6.5	1.4815608496612
15	15	7	1.4118609613406
15	16	7.5	1.5947617075035
15	17	8	1.8686843153561
15	18	8.5	1.6542968023021
15	19	9	1.5800130897105
15	20	9.5	1.5989493362405
15	21	10	1.5726989615504
15	22	10.5	1.4503109526041
15	23	11	1.5665168497934
15	24	11.5	4.5986223214663
15	25	12	6.6543354336105
15	26	12.5	6.7649307342819
15	27	13	7.2096996505112
15	28	13.5	8.1258220546014
15	29	14	7.7720176419972
15	30	14.5	1.1827992916936
15	31	15	0.973
15	32	15.5	0.973
15	33	16	0.973
15	34	16.5	1.3826954261668
15	35	17	1.304817640411
15	36	17.5	1.8762032725321
15	37	18	1.8087470297667
15	38	18.5	0.973
15	39	19	1.6118519283161
15	40	19.5	1.6469044146001
15	41	20	1.9383301795746
15	42	20.5	1.540200424566
15	43	21	1.4118099234401
15	44	21.5	1.6696313039536
15	45	22	1.2824106146412
15	46	22.5	1.9566670594839
15	47	23	1.559283384157
15	48	23.5	1.2926225771186
15	49	24	1.7936333750039
15	50	24.5	1.5024057383261
15	51	25	1.4947869259891
15	52	25.5	1.8679195817618
15	53	26	1.3221211084191
15	54	26.5	0.973
15	55	27	3.6274655817342
15	56	27.5	6.4275397243869
15	57	28	6.8184352928874
15	58	28.5	6.9280943490295
15	59	29	6.9791268426376
15	60	29.5	7.3604933744918
15	61	30	9.235236049927
15	62	30.5	8.5108373453007
15	63	31	1.6387323372405
15	64	31.5	2.4246313835492
15	65	32	1.3420402189006
15	66	32.5	2.8324141351834
15	67	33	2.1495345190754
15	146	33.5	1.5893367870315
15	147	34	2.1733140479828
15	148	34.5	2.162922425443
15	149	35	2.1482555025508
15	150	35.5	1.7342523722028
15	151	36	2.6405897277459
15	152	36.5	1.5211123520297
15	153	37	2.7811519725819
15	233	37.5	1.2973991722267
15	313	38	2.5305045661397
15	393	38.5	1.9912477542303
15	473	39	2.3830402828993
15	474	39.5	2.1384367678193
15	475	40	1.7252077799887
15	477	40.5	1.8273066437855
15	478	41	2.314963711928
15	479	41.5	1.780858403242
15	480	42	2.5578602432969
15	557	42.5	1.8118017444336
15	795	43	0.973
15	796	43.5	0.973
15	955	44	0.973
15	1114	44.5	0.973
15	1115	45	6.2499841014219
15	1116	45.5	5.4826258024982
15	1117	46	5.9813031337595
15	1118	46.5	6.1218573400353
15	1119	47	6.4010247361317
15	1291	47.5	7.4500735643962
15	1463	48	7.3573762340637
15	1466	48.5	8.9032937558199
15	1469	49	5.3723819698842
15	1470	49.5	2.0175096719669
15	1471	50	2.1987319426032
15	1472	50.5	2.3904061552008
15	1473	51	2.0937882691089
15	1476	51.5	1.9456156325652
15	1477	52	1.9878764566695
15	1478	52.5	2.3952904708788
15	1479	53	1.3389377007902
15	1480	53.5	2.6850657868486
15	1481	54	1.7333611107744
15	1482	54.5	1.7877890259482
15	1483	55	2.9401514552214
15	1484	55.5	1.9878289114713
15	1485	56	2.1794565078527
15	1486	56.5	1.5509191215168
15	1487	57	2.6191947681999
15	1488	57.5	1.2903609104698
15	1489	58	2.8383236220378
15	1490	58.5	2.2204335570631
15	1491	59	1.2673979973752
15	1492	59.5	2.0443841596734
15	1493	60	2.7105506948298
15	1494	60.5	1.6704050518451
15	1495	61	1.8832874433442
15	1496	61.5	2.5655267404663
15	1497	62	2.2418975553765
15	1498	62.5	2.2717208981589
15	1499	63	1.6972637314037
15	1500	63.5	2.3382574109053
15	1501	64	1.4567576614624
15	1502	64.5	2.3973826858581
15	1503	65	2.2516086434707
15	1504	65.5	2.0075276595656
15	1505	66	1.7146850385602
15	1506	66.5	2.6061346587589
15	1507	67	1.58509473035
15	1508	67.5	2.5769120074714
15	1509	68	2.233229339858
15	1510	68.5	1.86627752514
15	1511	69	2.1858353786294
15	1512	69.5	2.2495320223548
15	1513	70	1.790674430592
15	1514	70.5	2.0679371609537
15	1515	71	1.8878682731073
15	1516	71.5	2.5164473797535
15	1517	72	1.586325670496
15	1518	72.5	2.8505785698394
15	1519	73	2.0423067479373
15	1520	73.5	1.8957470377821
15	1521	74	1.4750647905542
15	1522	74.5	2.5831460453132
15	1523	75	2.4884023381172
15	1524	75.5	2.0659812273044
16	4	1.5	2.0247548197413
16	5	2	1.8645833396353
16	6	2.5	1.8055928882817
16	7	3	2.0152289357083
16	8	3.5	1.7362169775367
16	9	4	1.9772961226059
16	10	4.5	2.1043041368993
16	11	5	1.9376376652252
16	12	5.5	2.0410414907103
16	13	6	1.7316657243017
16	14	6.5	1.7535109653324
16	15	7	2.1064462006511
16	16	7.5	1.9656172225578
16	17	8	1.9374001099821
16	18	8.5	0.62614844637606
16	19	9	-0.023627150221728
16	20	9.5	0.18793160022236
16	21	10	-0.028722167541275
16	22	10.5	0.068589725960045
16	23	11	-0.1115026191622
16	24	11.5	-0.067786911884323
16	25	12	0.099224680000916
16	26	12.5	0.0044288464216535
16	27	13	-0.14205086414702
16	28	13.5	0.10821798915043
16	29	14	0.079349767691454
16	30	14.5	-0.075464900801887
16	31	15	0.11253216247075
16	32	15.5	-0.21784216864966
16	33	16	0.18814738872926
16	34	16.5	-0.12427133467048
16	35	17	0.11274709566496
16	36	17.5	-0.13037588955369
16	37	18	0.087639433937149
16	38	18.5	-0.15683101762552
16	39	19	0.20904142725747
16	40	19.5	-0.17143012872897
16	41	20	-0.041888968963178
16	42	20.5	0.16411815249827
16	43	21	-0.17084698309191
16	44	21.5	0.094302774905227
16	45	22	-0.050525205438024
16	46	22.5	0.18577058859169
16	47	23	-0.22320228931494
16	48	23.5	0.12290580227506
16	49	24	-0.027157431375237
16	50	24.5	0.10799457038753
16	51	25	-0.1820655551739
16	52	25.5	0.15779240796808
16	53	26	-0.061567105478609
16	54	26.5	0.0093804445303967
16	55	27	-0.10055269898381
16	56	27.5	-0.011625698073765
16	57	28	0.011218612701629
16	58	28.5	0.14980708769057
16	59	29	0.057279269178402
16	60	29.5	-0.18511616584845
16	61	30	0.19606974324677
16	62	30.5	-0.20159669661894
16	63	31	0.054580664862879
16	64	31.5	0.12670927534812
16	65	32	-0.20316809761338
16	66	32.5	0.20480400815606
16	67	33	-0.10092480957974
16	146	33.5	0.034184922459534
16	147	34	0.074869528110142
16	148	34.5	-0.15553805538453
16	149	35	0.059022647165694
16	150	35.5	-0.071553980140017
16	151	36	0.023994209938682
16	152	36.5	-0.077552517596629
16	153	37	0.021173556214197
16	233	37.5	0.014884578809141
16	313	38	0.14754596040584
16	393	38.5	-0.035961277899332
16	473	39	-0.055276975771413
16	474	39.5	0.13499816074036
16	475	40	-0.01764613980427
16	477	40.5	-0.042620429657404
16	478	41	-0.062837615595196
16	479	41.5	0.027608597707001
16	480	42	-0.064128786637447
16	557	42.5	0.096932213185358
16	795	43	-0.130356015414
16	796	43.5	0.064658899740316
16	955	44	-0.067577239749951
16	1114	44.5	-0.021598563320005
16	1115	45	0.11130836771801
16	1116	45.5	-0.067314715962855
16	1117	46	0.15205590656027
16	1118	46.5	-0.066671494189649
16	1119	47	-0.15444235177245
16	1291	47.5	0.20460433813743
16	1463	48	-0.14839413299225
16	1466	48.5	-0.048417676487006
16	1469	49	0.24135651560501
16	1470	49.5	-0.2084489559941
16	1471	50	0.20122817447409
16	1472	50.5	-0.0046068708971134
16	1473	51	-0.18021847907454
16	1476	51.5	0.067050804449245
16	1477	52	-0.10900092733092
16	1478	52.5	0.15329792033881
16	1479	53	0.062800901983863
16	1480	53.5	-0.10249304000288
16	1481	54	0.074838771782819
16	1482	54.5	-0.097682555411012
16	1483	55	-0.056976547995582
16	1484	55.5	0.082029773481189
16	1485	56	0.012030658996665
16	1486	56.5	-0.032376348264517
16	1487	57	0.13298744853586
16	1488	57.5	-0.16954613543581
16	1489	58	0.14992531752214
16	1490	58.5	-0.20311724673491
16	1491	59	0.094861625884661
16	1492	59.5	0.039152667992749
16	1493	60	-0.079514573412016
16	1494	60.5	0.16288252593018
16	1495	61	-0.060605762414639
16	1496	61.5	-0.11122234368696
16	1497	62	0.16988296730444
16	1498	62.5	-0.19574529673438
16	1499	63	0.11176637013443
16	1500	63.5	0.032391690681685
16	1501	64	-0.15823329408187
16	1502	64.5	0.10441160562914
16	1503	65	0.012327388389966
16	1504	65.5	0.036746435933743
16	1505	66	-0.023288049041291
16	1506	66.5	-0.017287020166403
16	1507	67	0.056067617335355
16	1508	67.5	-0.065338941123336
16	1509	68	0.0055285443179329
16	1510	68.5	-0.011896459353157
16	1511	69	-0.10261585501023
16	1512	69.5	0.060783070144243
16	1513	70	0.08896429354791
16	1514	70.5	-0.082396325967277
16	1515	71	0.034047712604515
16	1516	71.5	-0.02000093983952
16	1517	72	0.11076238262932
16	1518	72.5	-0.022320193215272
16	1519	73	0.023147707721222
16	1520	73.5	-0.07399827164598
16	1521	74	0.0080551694007589
16	1522	74.5	-0.077920002820903
16	1523	75	0.0028397892648364
16	1524	75.5	0.091833880795168
17	4	1.5	2.7984568684538
17	5	2	3.1444097541456
17	6	2.5	3.5280106963949
17	7	3	4.3259352163484
17	8	3.5	4.3384594692947
17	9	4	5.2703279254748
17	10	4.5	6.1151855528723
17	11	5	6.2806852194509
17	12	5.5	7.1081769084565
17	13	6	6.7304899914031
17	14	6.5	7.2412740892781
17	15	7	8.9513099409504
17	16	7.5	9.0547083895803
17	17	8	9.5156421158074
17	18	8.5	4.6597810862715
17	19	9	2.1615420551011
17	20	9.5	2.9893392055865
17	21	10	2.1508955436355
17	22	10.5	2.5310910794497
17	23	11	1.8294600174731
17	24	11.5	1.9944571009003
17	25	12	2.6438280591366
17	26	12.5	2.2784031518175
17	27	13	1.7072368803552
17	28	13.5	2.6763856360336
17	29	14	2.5706154503682
17	30	14.5	1.9686439407229
17	31	15	2.7015403788886
17	32	15.5	1.4163403560233
17	33	16	2.9915835300722
17	34	16.5	1.7786689819263
17	35	17	2.6993480398884
17	36	17.5	1.7543976624049
17	37	18	2.599350566667
17	38	18.5	1.6498124028048
17	39	19	3.0721560686166
17	40	19.5	1.5952186805004
17	41	20	2.090859451362
17	42	20.5	2.8946476406373
17	43	21	1.5955773137956
17	44	21.5	2.6198434412076
17	45	22	2.0596801512887
17	46	22.5	2.9830101723249
17	47	23	1.394852632666
17	48	23.5	2.7325389619537
17	49	24	2.1527590572988
17	50	24.5	2.6809528343535
17	51	25	1.5535692012185
17	52	25.5	2.8714179211643
17	53	26	2.0214317352524
17	54	26.5	2.2953468566745
17	55	27	1.8669144647108
17	56	27.5	2.2078811380704
17	57	28	2.2962931261129
17	58	28.5	2.8403333913287
17	59	29	2.4870104636654
17	60	29.5	1.542837195467
17	61	30	3.0245865350905
17	62	30.5	1.4792855239854
17	63	31	2.4675661406151
17	64	31.5	2.7547740711531
17	65	32	1.4724827522418
17	66	32.5	3.0567937273257
17	67	33	1.8701200591093
17	146	33.5	2.3929589674184
17	147	34	2.5550552333022
17	148	34.5	1.6577670743298
17	149	35	2.4873322713943
17	150	35.5	1.9803023516997
17	151	36	2.3493246872899
17	152	36.5	1.9545502412928
17	153	37	2.334973567115
17	233	37.5	2.3117178275866
17	313	38	2.8331294574493
17	393	38.5	2.122402373706
17	473	39	2.0449610131449
17	474	39.5	2.7879944136634
17	475	40	2.1966329459436
17	477	40.5	2.097772949325
17	478	41	2.0164614626763
17	479	41.5	2.3666521460552
17	480	42	2.0095966733201
17	557	42.5	2.636299141716
17	795	43	1.7532793151162
17	796	43.5	2.5073006434106
17	955	44	1.9944631301035
17	1114	44.5	2.1699719899606
17	1115	45	2.6886080819767
17	1116	45.5	1.9966207232319
17	1117	46	2.8522839398222
17	1118	46.5	2.003490496836
17	1119	47	1.6586684265149
17	1291	47.5	3.0539827821326
17	1463	48	1.6842125463087
17	1466	48.5	2.0660300465662
17	1469	49	3.1999094741599
17	1470	49.5	1.4527713220579
17	1471	50	3.0440766723459
17	1472	50.5	2.2477646378228
17	1473	51	1.5618820369224
17	1476	51.5	2.5171844690338
17	1477	52	1.8337815329028
17	1478	52.5	2.8529674386565
17	1479	53	2.5080088136019
17	1480	53.5	1.864120122887
17	1481	54	2.5526464674396
17	1482	54.5	1.8815674996042
17	1483	55	2.035329911982
17	1484	55.5	2.5753741617831
17	1485	56	2.3063321276099
17	1486	56.5	2.1333218134942
17	1487	57	2.7802924318602
17	1488	57.5	1.6035793444552
17	1489	58	2.8442732773411
17	1490	58.5	1.4725704974098
17	1491	59	2.6237468256945
17	1492	59.5	2.4116640212712
17	1493	60	1.9500082593741
17	1494	60.5	2.8954882430302
17	1495	61	2.0280993395237
17	1496	61.5	1.8276074505686
17	1497	62	2.9224022772228
17	1498	62.5	1.5015880774322
17	1499	63	2.6915392599532
17	1500	63.5	2.3874837004479
17	1501	64	1.6451835858889
17	1502	64.5	2.6616286857727
17	1503	65	2.3074901117686
17	1504	65.5	2.4039907370065
17	1505	66	2.1709401656596
17	1506	66.5	2.1930924899136
17	1507	67	2.4795978452096
17	1508	67.5	2.0073726277853
17	1509	68	2.2808212529278
17	1510	68.5	2.2129641314833
17	1511	69	1.8585816697719
17	1512	69.5	2.4902122316539
17	1513	70	2.6049071776096
17	1514	70.5	1.9395711585568
17	1515	71	2.3899153090602
17	1516	71.5	2.1805248564165
17	1517	72	2.6921195305651
17	1518	72.5	2.1766269533413
17	1519	73	2.3536356118178
17	1520	73.5	1.9745072775924
17	1521	74	2.2913191262624
17	1522	74.5	1.9558876815199
17	1523	75	2.2667144277869
17	1524	75.5	2.6155597258446
18	4	1.5	1.9085346315506
18	5	2	1.992238397398
18	6	2.5	2.2367246344406
18	7	3	1.7137301546521
18	8	3.5	1.9231349947583
18	9	4	2.1918655931856
18	10	4.5	2.0598226117389
18	11	5	1.7709157508984
18	12	5.5	2.1800025564665
18	13	6	2.0458076919708
18	14	6.5	1.8702422549389
18	15	7	1.7747703000437
18	16	7.5	1.0979899465706
18	17	8	0.11920488033909
18	18	8.5	-0.1707974996604
18	19	9	0.10543891455512
[...]
103	1486	56.5	-0.08793841931525
103	1487	57	0.066111935238926
103	1488	57.5	-0.19100402427247
103	1489	58	0.32990651490914
103	1490	58.5	-0.34969408909327
103	1491	59	0.30040311037994
103	1492	59.5	-0.29172781329506
103	1493	60	0.36642252309691
103	1494	60.5	-0.029910205517577
103	1495	61	-0.17431553710824
103	1496	61.5	-0.1238873844829
103	1497	62	-0.084889473613444
103	1498	62.5	0.16414211409969
103	1499	63	-0.068729670396408
103	1500	63.5	0.12970558273877
103	1501	64	0.0097881522523764
103	1502	64.5	-0.075163396612641
103	1503	65	-0.072509515488768
103	1504	65.5	-0.0023459184290289
103	1505	66	0.12230804366861
103	1506	66.5	-0.036350283924364
103	1507	67	0.042002619748271
103	1508	67.5	-0.068268778526289
103	1509	68	0.14757555304231
103	1510	68.5	0.065520870086591
103	1511	69	-0.24440756136846
103	1512	69.5	0.063528582528164
103	1513	70	0.1155220109422
103	1514	70.5	-0.079896804489575
103	1515	71	-0.059259906251253
103	1516	71.5	-2.1430670098337
103	1517	72	-1.0633972748914
103	1518	72.5	0.75871822809537
103	1519	73	0.65775730088653
103	1520	73.5	-1.9367371843536
103	1521	74	-1.3138657154625
103	1522	74.5	1.3537851075445
103	1523	75	1.4625364416507
103	1524	75.5	-2.7322452320543
104	35	17	2.3548820857863
104	36	17.5	3.1716941421735
104	37	18	3.6886383437688
104	38	18.5	3.884963985717
104	39	19	4.3777766709134
104	40	19.5	4.23791292461
104	41	20	0.973
104	42	20.5	0.973
104	43	21	0.973
104	44	21.5	0.973
104	45	22	0.973
104	46	22.5	1.5544966487427
104	47	23	0.973
104	48	23.5	0.973
104	49	24	1.3624027381821
104	50	24.5	1.5915147622106
104	51	25	1.301205446332
104	52	25.5	1.3269988387154
104	53	26	2.765526809381
104	54	26.5	3.3584323475039
104	55	27	4.0914399652828
104	56	27.5	1.5694893153715
104	57	28	1.5576004795756
104	58	28.5	1.7022120149246
104	59	29	1.445348077382
104	60	29.5	4.9791980196534
104	61	30	5.7040045519361
104	62	30.5	0.973
104	63	31	0.973
104	64	31.5	0.973
104	65	32	0.973
104	66	32.5	0.973
104	67	33	0.973
104	146	33.5	0.973
104	147	34	0.973
104	148	34.5	0.973
104	149	35	0.973
104	150	35.5	0.973
104	151	36	0.973
104	152	36.5	1.4166627497972
104	153	37	1.3428857997242
104	233	37.5	0.973
104	313	38	1.334511786936
104	393	38.5	1.2737435685532
104	473	39	1.4293184122122
104	474	39.5	1.403112349449
104	475	40	1.3320306340664
104	477	40.5	1.4716598641494
104	478	41	1.2912078856758
104	479	41.5	1.4074179708294
104	480	42	1.4371238560261
104	557	42.5	1.4640389443243
104	795	43	1.237344489598
104	796	43.5	1.4059001302072
104	955	44	1.4676902727367
104	1114	44.5	1.5457611883155
104	1115	45	0.973
104	1116	45.5	1.6523851315231
104	1117	46	1.4856975188283
104	1118	46.5	1.2238735039805
104	1119	47	1.3397474189534
104	1291	47.5	1.6813058118487
104	1463	48	1.6973289534472
104	1466	48.5	2.8460886171027
104	1469	49	2.5462994769447
104	1470	49.5	0.973
104	1471	50	5.1403770365539
104	1472	50.5	1.762770110127
104	1473	51	0.973
104	1476	51.5	6.3651916464461
104	1477	52	4.2034329656917
104	1478	52.5	5.334416211554
104	1479	53	6.2282667412265
104	1480	53.5	1.6330477592079
104	1481	54	1.5188948582665
104	1482	54.5	1.4196960920081
104	1483	55	2.2521875312098
104	1484	55.5	1.3699021433158
104	1485	56	1.4685379672468
104	1486	56.5	1.4725308749909
104	1487	57	1.8466170192796
104	1488	57.5	1.2224306181574
104	1489	58	2.4949169408551
104	1490	58.5	0.973
104	1491	59	2.4194582159682
104	1492	59.5	0.973
104	1493	60	2.5858654779471
104	1494	60.5	1.619214751188
104	1495	61	1.2649269278969
104	1496	61.5	1.3837003933242
104	1497	62	1.4748342352907
104	1498	62.5	2.0786292033971
104	1499	63	1.5162152889117
104	1500	63.5	1.9990303973279
104	1501	64	1.7099655702316
104	1502	64.5	1.5026410390584
104	1503	65	1.5069128395228
104	1504	65.5	1.675015130755
104	1505	66	1.9802293801151
104	1506	66.5	1.596392303373
104	1507	67	1.7868104044043
104	1508	67.5	1.5187782384206
104	1509	68	2.0459076569672
104	1510	68.5	1.8502042768597
104	1511	69	0.973
104	1512	69.5	1.837091360143
104	1513	70	1.9682885885539
104	1514	70.5	1.4927459656882
104	1515	71	1.540699933973
104	1516	71.5	0.973
104	1517	72	0.973
104	1518	72.5	3.1953557269112
104	1519	73	3.0575690026208
104	1520	73.5	0.973
104	1521	74	0.973
104	1522	74.5	4.2067428608466
104	1523	75	4.7276673567585
104	1524	75.5	0.973
105	39	19	1287.36321585
105	40	19.5	1287.3973129066
105	41	20	1287.4511138217
105	42	20.5	1287.5222543478
105	43	21	1287.6143088412
105	44	21.5	1287.7257522403
105	45	22	1287.8556762772
105	46	22.5	1288.0053717273
105	47	23	1288.1683776429
105	48	23.5	1288.3257390398
105	49	24	1288.4770477553
105	50	24.5	1288.624383638
105	51	25	1288.7678350392
105	52	25.5	1288.9082990704
105	53	26	1289.0473915294
105	54	26.5	1289.1910868547
105	55	27	1289.3419494666
105	56	27.5	1289.4997446948
105	57	28	1289.658405524
105	58	28.5	1289.8172138106
105	59	29	1289.977278357
105	60	29.5	1290.1420117291
105	61	30	1290.3197949451
105	62	30.5	1290.5073633424
105	63	31	1291.5497199157
105	64	31.5	1295.7613106546
105	65	32	1299.752265499
105	66	32.5	1303.2289065789
105	67	33	1305.4173334397
105	146	33.5	1307.5651558831
105	147	34	1308.3498108843
105	148	34.5	1307.6627501164
105	149	35	1306.9824109236
105	150	35.5	1305.191557868
105	151	36	1302.7013913749
105	152	36.5	1300.247668194
105	153	37	1297.8198588864
105	233	37.5	1295.4927444757
105	313	38	1293.4480060061
105	393	38.5	1292.298000835
105	473	39	1292.4106498562
105	474	39.5	1292.5225924873
105	475	40	1292.6340515797
105	477	40.5	1292.7452820124
105	478	41	1292.8558032967
105	479	41.5	1292.9656443273
105	480	42	1293.0750021111
105	557	42.5	1293.1840746066
105	795	43	1293.2932730807
105	796	43.5	1293.4013836373
105	955	44	1293.5096522012
105	1114	44.5	1293.6182277575
105	1115	45	1293.726869113
105	1116	45.5	1293.8341284719
105	1117	46	1293.9419742379
105	1118	46.5	1294.0494755688
105	1119	47	1294.1573850801
105	1291	47.5	1294.2651596654
105	1463	48	1294.3727833639
105	1466	48.5	1294.4838094336
105	1469	49	1294.6000414771
105	1470	49.5	1294.7156724238
105	1471	50	1294.8389842595
105	1472	50.5	1294.9715193525
105	1473	51	1295.1013204873
105	1476	51.5	1295.2248576564
105	1477	52	1295.3605225908
105	1478	52.5	1295.508099466
105	1479	53	1295.6348606717
105	1480	53.5	1295.759794547
105	1481	54	1295.8942456126
105	1482	54.5	1296.04103835
105	1483	55	1296.1939213517
105	1484	55.5	1296.3502955028
105	1485	56	1296.5054956409
105	1486	56.5	1296.6601626222
105	1487	57	1296.7862220459
105	1488	57.5	1296.8943760667
105	1489	58	1296.9710600353
105	1490	58.5	1297.0381420621
105	1491	59	1297.1049059395
105	1492	59.5	1297.1714328303
105	1493	60	1297.2379036018
105	1494	60.5	1297.3042459066
105	1495	61	1297.3206217514
105	1496	61.5	1297.0723106636
105	1497	62	1296.797846653
105	1498	62.5	1296.4733743971
105	1499	63	1296.1482561359
105	1500	63.5	1295.8260883277
105	1501	64	1295.5189666707
105	1502	64.5	1295.2118702321
105	1503	65	1294.9047140186
105	1504	65.5	1294.687519746
105	1505	66	1294.4995136168
105	1506	66.5	1294.3906829921
105	1507	67	1294.4200745227
105	1508	67.5	1294.4494588643
105	1509	68	1294.4787464261
105	1510	68.5	1294.5081926014
105	1511	69	1294.5377709059
105	1512	69.5	1294.5821061058
105	1513	70	1294.6716667961
105	1514	70.5	1294.7611129588
105	1515	71	1294.8506243115
105	1516	71.5	1294.9371504008
105	1517	72	1295.0176382036
105	1518	72.5	1295.0970065396
105	1519	73	1295.1783073398
105	1520	73.5	1295.2596899237
105	1521	74	1295.3329707494
105	1522	74.5	1295.406276868
105	1523	75	1295.482989609
105	1524	75.5	1295.9480402364
106	39	19	1828.2263283413
106	40	19.5	1827.4100624938
106	41	20	1826.1220964929
106	42	20.5	1824.4190292023
106	43	21	1822.215292383
106	44	21.5	1819.5473952154
106	45	22	1816.4370811675
106	46	22.5	1812.853449747
106	47	23	1808.9511726825
106	48	23.5	1805.1840224685
106	49	24	1801.5617703097
106	50	24.5	1798.0346257044
106	51	25	1794.6004735725
106	52	25.5	1791.2378375269
106	53	26	1787.9080362115
106	54	26.5	1784.4680446638
106	55	27	1780.8564719912
106	56	27.5	1777.0789360814
106	57	28	1773.2806781335
106	58	28.5	1769.4788901303
106	59	29	1765.6470279191
106	60	29.5	1761.7033964442
106	61	30	1757.447358476
106	62	30.5	1752.9570683399
106	63	31	1748.9754203232
106	64	31.5	1748.7209764961
106	65	32	1749.1632989468
106	66	32.5	1748.7461698456
106	67	33	1745.6684658481
106	146	33.5	1742.6478660572
106	147	34	1739.4240005063
106	148	34.5	1735.9781804308
106	149	35	1732.5660711108
106	150	35.5	1729.8725151159
106	151	36	1727.6282909922
106	152	36.5	1725.4169108421
106	153	37	1723.2288851701
106	233	37.5	1720.997326334
106	313	38	1718.5755979512
106	393	38.5	1715.6981774261
106	473	39	1712.5749913808
106	474	39.5	1709.471389954
106	475	40	1706.381194598
106	477	40.5	1703.2973388229
106	478	41	1700.2331441315
106	479	41.5	1697.1878094254
106	480	42	1694.1558727017
106	557	42.5	1691.1318455786
106	795	43	1688.1043257061
106	796	43.5	1685.1069682678
106	955	44	1682.1052300902
106	1114	44.5	1679.0949805686
106	1115	45	1676.0829067687
106	1116	45.5	1673.1091487277
106	1117	46	1670.1191325905
106	1118	46.5	1667.1386658931
106	1119	47	1664.1468824223
106	1291	47.5	1661.1588397678
106	1463	48	1658.1749804346
106	1466	48.5	1655.0967906043
106	1469	49	1651.8742655227
106	1470	49.5	1648.6684058094
106	1471	50	1645.2495939974
106	1472	50.5	1641.575068038
106	1473	51	1637.976340875
106	1476	51.5	1634.551281712
106	1477	52	1630.789981124
106	1478	52.5	1626.6984228306
106	1479	53	1623.18397748
106	1480	53.5	1619.7201947365
106	1481	54	1615.6755088167
106	1482	54.5	1611.1983303251
106	1483	55	1606.2187929256
106	1484	55.5	1600.9222490983
106	1485	56	1595.6654702304
106	1486	56.5	1590.4267498935
106	1487	57	1585.2279640073
106	1488	57.5	1580.0473864032
106	1489	58	1574.9220304936
106	1490	58.5	1569.8009275747
106	1491	59	1564.7041124767
106	1492	59.5	1559.6253891662
106	1493	60	1554.5509500336
106	1494	60.5	1549.4863181701
106	1495	61	1544.4275588002
106	1496	61.5	1539.3675306337
106	1497	62	1534.3302503023
106	1498	62.5	1529.3258897401
106	1499	63	1524.3115657885
106	1500	63.5	1519.3030575039
106	1501	64	1514.2887058342
106	1502	64.5	1509.2747659059
106	1503	65	1504.2598500336
106	1504	65.5	1499.2500252444
106	1505	66	1494.2490622057
106	1506	66.5	1489.2521108547
106	1507	67	1484.2506520543
106	1508	67.5	1479.250416589
106	1509	68	1474.2666498357
106	1510	68.5	1469.2558923401
106	1511	69	1464.2226508567
106	1512	69.5	1459.2084077047
106	1513	70	1454.2187339263
106	1514	70.5	1449.2354408028
106	1515	71	1444.2485157568
106	1516	71.5	1439.4279079875
106	1517	72	1434.9437098708
106	1518	72.5	1430.5218803436
106	1519	73	1425.9923878917
106	1520	73.5	1421.4583390402
106	1521	74	1417.3756615492
106	1522	74.5	1413.2915749177
106	1523	75	1409.0176959299
106	1524	75.5	1404.7162870541
107	40	19.5	2.065513285686
107	41	20	2.9240993874418
107	42	20.5	3.7950039299941
107	43	21	4.7734805876311
107	44	21.5	5.6879023730467
107	45	22	6.5898310169941
107	46	22.5	7.5990618778989
107	47	23	7.7721649363796
107	48	23.5	7.3721099343199
107	49	24	7.149379716798
107	50	24.5	6.9863222823231
107	51	25	6.8298737109141
107	52	25.5	6.6916455239091
107	53	26	6.6829343015967
107	54	26.5	7.0223018462572
107	55	27	7.3812398442971
107	56	27.5	7.4859868196552
107	57	28	7.6493453207604
107	58	28.5	7.6085962153345
107	59	29	7.6921069778571
107	60	29.5	8.1960712383326
107	61	30	8.8076184742723
107	62	30.5	8.8232325907748
107	63	31	8.6536523406029
107	64	31.5	8.3975680951608
107	65	32	7.9078427221458
107	66	32.5	7.6718454924393
107	67	33	7.4304328828099
107	146	33.5	7.3892073234266
107	147	34	7.1827348395662
107	148	34.5	6.9367784754076
107	149	35	6.8914933502554
107	150	35.5	6.8103046186079
107	151	36	6.583104115433
107	152	36.5	6.5493105384325
107	153	37	6.4770235902395
107	233	37.5	6.3563266437398
107	313	38	6.3084773316172
107	393	38.5	6.2440419672607
107	473	39	6.254683664116
107	474	39.5	6.1531057115766
107	475	40	6.1529508502927
107	477	40.5	6.1525457857777
107	478	41	6.1628783526571
107	479	41.5	6.0280770226662
107	480	42	6.0688171591075
107	557	42.5	6.0877214581592
107	795	43	6.0087528133421
107	796	43.5	5.9164472176116
107	955	44	6.0115613468139
107	1114	44.5	6.0493846294703
107	1115	45	5.9477805789484
107	1116	45.5	5.8989934514524
107	1117	46	5.9731556322724
107	1118	46.5	6.0015806921055
107	1119	47	5.9493303083369
107	1291	47.5	5.9500719132143
107	1463	48	5.9553636209574
107	1466	48.5	6.2227921841613
107	1469	49	6.6823362910289
107	1470	49.5	6.5214442974481
107	1471	50	7.1333069474027
107	1472	50.5	7.3690525157247
107	1473	51	6.8357990082831
107	1476	51.5	7.154131557083
107	1477	52	7.7506347829881
107	1478	52.5	8.3708412832715
107	1479	53	6.1518612067789
107	1480	53.5	7.4518612067789
107	1481	54	8.42813143616
107	1482	54.5	9.2932364068475
107	1483	55	10.411358237734
107	1484	55.5	10.607510293846
107	1485	56	10.481316081548
107	1486	56.5	10.487583736657
107	1487	57	10.372160036231
107	1488	57.5	10.391601304864
107	1489	58	10.255740195866
107	1490	58.5	10.15501739778
107	1491	59	10.205510019882
107	1492	59.5	10.183727817256
107	1493	60	10.145308173181
107	1494	60.5	10.121236740949
107	1495	61	10.151149889364
107	1496	61.5	10.131181819541
107	1497	62	10.028529524405
107	1498	62.5	10.006415300266
107	1499	63	10.106749217645
107	1500	63.5	10.093507281577
107	1501	64	10.021789462369
107	1502	64.5	10.011963884952
107	1503	65	10.0790737271
107	1504	65.5	10.006335837047
107	1505	66	10.027849982509
107	1506	66.5	9.9510928951917
107	1507	67	10.002285840101
107	1508	67.5	9.996569190997
107	1509	68	9.9467534878162
107	1510	68.5	9.9843568525826
107	1511	69	10.032342327419
107	1512	69.5	10.03402670072
107	1513	70	9.9335234837664
107	1514	70.5	9.9839235881316
107	1515	71	9.9831750790155
107	1516	71.5	9.3029632911396
107	1517	72	8.7899080975049
107	1518	72.5	8.8808722413343
107	1519	73	9.1664234612898
107	1520	73.5	8.7820791852663
107	1521	74	7.9539830105353
107	1522	74.5	8.3742928605557
107	1523	75	8.6485972116879
107	1524	75.5	8.2246143275012
108	41	20	1.7171722035117
108	42	20.5	1.7418090851046
108	43	21	1.9569533152739
108	44	21.5	1.8288435708312
108	45	22	1.8038572878949
108	46	22.5	2.0184617218096
108	47	23	0.34620611696141
108	48	23.5	-0.80011000411945
108	49	24	-0.44546043504378
108	50	24.5	-0.32611486894979
108	51	25	-0.31289714281812
108	52	25.5	-0.27645637400994
108	53	26	-0.017422444624829
108	54	26.5	0.67873508932102
108	55	27	0.71787599607982
108	56	27.5	0.20949395071612
108	57	28	0.32671700221055
108	58	28.5	-0.081498210851791
108	59	29	0.16702152504503
108	60	29.5	1.0079285209512
108	61	30	1.2230944718794
108	62	30.5	0.031228233004967
108	63	31	-0.33916050034381
108	64	31.5	-0.5121684908843
108	65	32	-0.97945074602991
108	66	32.5	-0.47199445941309
108	67	33	-0.4828252192588
108	146	33.5	-0.082451118766572
108	147	34	-0.4129449677207
108	148	34.5	-0.49191272831717
108	149	35	-0.090570250304395
108	150	35.5	-0.16237746329511
108	151	36	-0.45440100634965
108	152	36.5	-0.06758715400105
108	153	37	-0.14457389638603
108	233	37.5	-0.24139389299942
108	313	38	-0.095698624245115
108	393	38.5	-0.128870728713
108	473	39	0.021283393710529
108	474	39.5	-0.20315590507876
108	475	40	-0.00030972256787543
108	477	40.5	-0.00081012903002531
108	478	41	0.020665133758841
108	479	41.5	-0.26960265998173
108	480	42	0.081480272882519
108	557	42.5	0.037808598103345
108	795	43	-0.15793728963408
108	796	43.5	-0.18461119146111
108	955	44	0.1902282584047
108	1114	44.5	0.075646565312672
108	1115	45	-0.2032081010438
108	1116	45.5	-0.09757425499183
108	1117	46	0.14832436163989
108	1118	46.5	0.056850119666203
108	1119	47	-0.10450076753727
108	1291	47.5	0.0014832097548823
108	1463	48	0.010583415486206
108	1466	48.5	0.53485712640785
108	1469	49	0.91908821373516
108	1470	49.5	-0.32178398716166
108	1471	50	1.2237252999093
108	1472	50.5	0.471491136644
108	1473	51	-1.0665070148832
108	1476	51.5	0.63666509759985
108	1477	52	1.1930064518102
108	1478	52.5	1.2404130005668
108	1479	53	-4.4379601529852
108	1480	53.5	2.6
108	1481	54	1.9525404587621
108	1482	54.5	1.7302099413751
108	1483	55	2.2362436617725
108	1484	55.5	0.39230411222455
108	1485	56	-0.25238842459522
108	1486	56.5	0.012535310217835
108	1487	57	-0.23084740085222
108	1488	57.5	0.038882537266517
108	1489	58	-0.27172221799725
108	1490	58.5	-0.20144559617241
108	1491	59	0.10098524420443
108	1492	59.5	-0.043564405251566
108	1493	60	-0.076839288150698
108	1494	60.5	-0.048142864463308
108	1495	61	0.059826296830135
108	1496	61.5	-0.03993613964688
108	1497	62	-0.20530459027066
108	1498	62.5	-0.044228448278332
108	1499	63	0.20066783475761
108	1500	63.5	-0.026483872135476
108	1501	64	-0.14343563841712
108	1502	64.5	-0.019651154833845
108	1503	65	0.13421968429555
108	1504	65.5	-0.14547578010508
108	1505	66	0.043028290923164
108	1506	66.5	-0.15351417463382
108	1507	67	0.10238588981849
108	1508	67.5	-0.01143329820788
108	1509	68	-0.09963140636161
108	1510	68.5	0.075206729532841
108	1511	69	0.09597094967253
108	1512	69.5	0.0033687466014278
108	1513	70	-0.20100643390634
108	1514	70.5	0.10080020873034
108	1515	71	-0.0014970182322536
108	1516	71.5	-1.3604235757516
108	1517	72	-1.0261103872696
108	1518	72.5	0.18192828765887
108	1519	73	0.57110243991109
108	1520	73.5	-0.768688552047
108	1521	74	-1.6561923494621
108	1522	74.5	0.84061970004082
108	1523	75	0.54860870226438
108	1524	75.5	-0.84796576837347
109	41	20	2.4634731273316
109	42	20.5	2.8911715661316
109	43	21	3.6016170273511
109	44	21.5	3.9083340027807
109	45	22	4.3191240792421
109	46	22.5	5.2136739820135
109	47	23	2.1767759861862
109	48	23.5	0.973
109	49	24	0.973
109	50	24.5	0.973
109	51	25	0.973
109	52	25.5	0.973
109	53	26	1.4318967657698
109	54	26.5	2.6294197387639
109	55	27	2.780235558582
109	56	27.5	1.8878311193926
109	57	28	2.1226518125731
109	58	28.5	1.3682875896638
109	59	29	1.832735819701
109	60	29.5	3.5471540633161
109	61	30	4.1941812018731
109	62	30.5	1.6654899682821
109	63	31	0.973
109	64	31.5	0.973
109	65	32	0.973
109	66	32.5	0.973
109	67	33	0.973
109	146	33.5	1.3568970826736
109	147	34	0.973
109	148	34.5	0.973
109	149	35	1.3222572393175
109	150	35.5	0.973
109	151	36	0.973
109	152	36.5	1.345211588078
109	153	37	1.2218786289425
109	233	37.5	0.973
109	313	38	1.2920186436612
109	393	38.5	1.2397750924275
109	473	39	1.4664122548565
109	474	39.5	0.973
109	475	40	1.4278781202724
109	477	40.5	1.4271123760589
109	478	41	1.4596135926918
109	479	41.5	0.973
109	480	42	1.5425798855973
109	557	42.5	1.4799841085226
109	795	43	0.973
109	796	43.5	0.973
109	955	44	1.6956672181913
109	1114	44.5	1.5325581813796
109	1115	45	0.973
109	1116	45.5	1.2748132536632
109	1117	46	1.6313496817396
109	1118	46.5	1.5017127951677
109	1119	47	1.2666162522416
109	1291	47.5	1.4186181866301
109	1463	48	1.4319883195171
109	1466	48.5	2.2345691142789
109	1469	49	2.9400601049272
109	1470	49.5	0.973
109	1471	50	3.5913808162635
109	1472	50.5	2.339790285089
109	1473	51	0.973
109	1476	51.5	2.5866441403632
109	1477	52	3.7553224240262
109	1478	52.5	4.0703698856349
109	1479	53	0.973
109	1480	53.5	6.1770407305666
109	1481	54	5.537838836663
109	1482	54.5	5.5075485751531
109	1483	55	7.3275408966978
109	1484	55.5	2.7348551980467
109	1485	56	0.973
109	1486	56.5	1.7541653112831
109	1487	57	0.973
109	1488	57.5	1.8123294647764
109	1489	58	0.973
109	1490	58.5	1.2036102288391
109	1491	59	1.9488819948211
109	1492	59.5	1.5919086248307
109	1493	60	1.5080008273084
109	1494	60.5	1.5765972096122
109	1495	61	1.8426835776063
109	1496	61.5	1.5972818495597
109	1497	62	0.973
109	1498	62.5	1.578607318248
109	1499	63	2.1816905425479
109	1500	63.5	1.6274824552716
109	1501	64	1.3400020797727
109	1502	64.5	1.6382720344832
109	1503	65	2.0168294259374
109	1504	65.5	1.3344414589472
109	1505	66	1.7908833201187
109	1506	66.5	1.3129110754176
109	1507	67	1.9317589099784
109	1508	67.5	1.6569735347577
109	1509	68	1.4419092773794
109	1510	68.5	1.8645560923738
109	1511	69	1.9192763346819
109	1512	69.5	1.6955128494628
109	1513	70	1.19853675119
109	1514	70.5	1.9260964946664
109	1515	71	1.6799000058562
109	1516	71.5	0.973
109	1517	72	0.973
109	1518	72.5	1.9924978659558
109	1519	73	2.8849648641207
109	1520	73.5	0.973
109	1521	74	0.973
109	1522	74.5	3.2647705873311
109	1523	75	2.7304398700321
109	1524	75.5	0.973

