version 3
run General-0-20230322-12:10:28-4879
attr configname General
attr datetime 20230322-12:10:28
attr datetimef 20230322-121028
attr experiment General
attr inifile omnetpp.ini
attr iterationvars ""
attr iterationvarsd ""
attr iterationvarsf ""
attr measurement ""
attr network v5_0
attr processid 4879
attr repetition 0
attr replication #0
attr resultdir results
attr runnumber 0
attr seedset 0
config image-path ../../../inet4.4/images:../../../veins-5.2/images
config cmdenv-express-mode true
config cmdenv-autoflush true
config cmdenv-status-frequency 1s
config **.cmdenv-log-level info
config **.result-recording-modes all
config seed-set 0
config image-path ../../images
config network v5_0
config debug-on-errors true
config print-undisposed true
config **.scalar-recording true
config **.vector-recording true
config *.playgroundSizeX 3500m
config *.playgroundSizeY 3500m
config *.playgroundSizeZ 50m
config *.annotations.draw true
config *.obstacles.obstacles "xmldoc(\"config.xml\", \"//AnalogueModel[@type='SimpleObstacleShadowing']/obstacles\")"
config *.manager.updateInterval 0.5s
config *.manager.host "\"localhost\""
config *.manager.port 9999
config *.manager.autoShutdown true
config *.manager.launchConfig "xmldoc(\"v5_0_Final.launchd.xml\")"
config *.rsu[0].mobility.x 2000
config *.rsu[0].mobility.y 2000
config *.rsu[0].mobility.z 3
config *.rsu[*].applType "\"RSU\""
config *.rsu[*].appl.headerLength "80 bit"
config *.rsu[*].appl.sendBeacons false
config *.rsu[*].appl.dataOnSch false
config *.rsu[*].appl.beaconInterval 1s
config *.rsu[*].appl.beaconUserPriority 7
config *.rsu[*].appl.dataUserPriority 5
config *.rsu[*].nic.phy80211p.antennaOffsetZ "0 m"
config *.connectionManager.sendDirect true
config *.connectionManager.maxInterfDist 2600m
config *.connectionManager.drawMaxIntfDist false
config *.**.nic.mac1609_4.useServiceChannel false
config *.**.nic.mac1609_4.txPower 20mW
config *.**.nic.mac1609_4.bitrate 6Mbps
config *.**.nic.phy80211p.minPowerLevel -110dBm
config *.**.nic.phy80211p.useNoiseFloor true
config *.**.nic.phy80211p.noiseFloor -98dBm
config *.**.nic.phy80211p.decider "xmldoc(\"config.xml\")"
config *.**.nic.phy80211p.analogueModels "xmldoc(\"config.xml\")"
config *.**.nic.phy80211p.usePropagationDelay true
config *.**.nic.phy80211p.antenna "xmldoc(\"antenna.xml\", \"/root/Antenna[@id='monopole']\")"
config *.node[*].nic.phy80211p.antennaOffsetY "0 m"
config *.node[*].nic.phy80211p.antennaOffsetZ "1.895 m"
config *.**.nic.mac1609_4.useAcks true
config *.veinsApp.useAcks false
config *.node[*].applType "\"VeinsApp\""
config *.node[*].appl.headerLength "80 bit"
config *.node[*].appl.sendBeacons false
config *.node[*].appl.dataOnSch false
config *.node[*].appl.beaconInterval 1s
config *.node[*].veinsmobility.x 0
config *.node[*].veinsmobility.y 0
config *.node[*].veinsmobility.z 0
config *.node[*].veinsmobility.setHostSpeed false
config *.node[*0].veinsmobility.accidentCount 0
config *.node[*0].veinsmobility.accidentStart 73s
config *.node[*0].veinsmobility.accidentDuration 50s
config *.veinsApp.stillAvailableProbability "uniform(0, 1)"
config *.veinsApp.stillAvailableThreshold 0.5
config *.veinsApp.randomVehicleLoadActual "uniform(0, 1)"
config *.veinsApp.randomCpuVehicleFreq "uniform(1.20GHz, 2.70GHz)"
config **.veinsApp.minimumVehicleLoadActual 900MB
config *.node[*].veinsApp.commonVehicleLoad 900MB
config *.node[*].veinsApp.busWaitingTime "uniform(100ms, 200ms)"
config *.veinsApp.vehicleOkMessageTime "uniform(0ms, 100ms)"
config *.veinsApp.randomTimeHelpMessage "uniform(30s, 40s)"

vector 0 v5_0.rsu[0].nic.mac1609_4 channelBusy:vector ETV
attr recordingmode vector
attr source org_car2x_veins_modules_mac_sigChannelBusy
vector 1 v5_0.node[0].nic.mac1609_4 channelBusy:vector ETV
attr recordingmode vector
attr source org_car2x_veins_modules_mac_sigChannelBusy
vector 2 v5_0.node[0].veinsmobility posx ETV
vector 3 v5_0.node[0].veinsmobility posy ETV
vector 4 v5_0.node[1].nic.mac1609_4 channelBusy:vector ETV
attr recordingmode vector
attr source org_car2x_veins_modules_mac_sigChannelBusy
vector 5 v5_0.node[1].veinsmobility posx ETV
vector 6 v5_0.node[1].veinsmobility posy ETV
vector 7 v5_0.node[2].nic.mac1609_4 channelBusy:vector ETV
attr recordingmode vector
attr source org_car2x_veins_modules_mac_sigChannelBusy
vector 8 v5_0.node[2].veinsmobility posx ETV
vector 9 v5_0.node[2].veinsmobility posy ETV
vector 10 v5_0.node[3].nic.mac1609_4 channelBusy:vector ETV
attr recordingmode vector
attr source org_car2x_veins_modules_mac_sigChannelBusy
vector 11 v5_0.node[3].veinsmobility posx ETV
vector 12 v5_0.node[3].veinsmobility posy ETV
vector 13 v5_0.node[0].veinsmobility speed ETV
vector 14 v5_0.node[1].veinsmobility speed ETV
vector 15 v5_0.node[2].veinsmobility speed ETV
vector 16 v5_0.node[3].veinsmobility speed ETV
vector 17 v5_0.node[0].veinsmobility acceleration ETV
vector 18 v5_0.node[0].veinsmobility co2emission ETV
vector 19 v5_0.node[1].veinsmobility acceleration ETV
vector 20 v5_0.node[1].veinsmobility co2emission ETV
vector 21 v5_0.node[2].veinsmobility acceleration ETV
vector 22 v5_0.node[2].veinsmobility co2emission ETV
vector 23 v5_0.node[3].veinsmobility acceleration ETV
vector 24 v5_0.node[3].veinsmobility co2emission ETV
vector 25 v5_0.node[4].nic.mac1609_4 channelBusy:vector ETV
attr recordingmode vector
attr source org_car2x_veins_modules_mac_sigChannelBusy
vector 26 v5_0.node[4].veinsmobility posx ETV
vector 27 v5_0.node[4].veinsmobility posy ETV
vector 28 v5_0.node[5].nic.mac1609_4 channelBusy:vector ETV
attr recordingmode vector
attr source org_car2x_veins_modules_mac_sigChannelBusy
vector 29 v5_0.node[5].veinsmobility posx ETV
vector 30 v5_0.node[5].veinsmobility posy ETV
vector 31 v5_0.node[6].nic.mac1609_4 channelBusy:vector ETV
attr recordingmode vector
attr source org_car2x_veins_modules_mac_sigChannelBusy
vector 32 v5_0.node[6].veinsmobility posx ETV
vector 33 v5_0.node[6].veinsmobility posy ETV
vector 34 v5_0.node[4].veinsmobility speed ETV
vector 35 v5_0.node[5].veinsmobility speed ETV
vector 36 v5_0.node[6].veinsmobility speed ETV
vector 37 v5_0.node[7].nic.mac1609_4 channelBusy:vector ETV
attr recordingmode vector
attr source org_car2x_veins_modules_mac_sigChannelBusy
vector 38 v5_0.node[7].veinsmobility posx ETV
vector 39 v5_0.node[7].veinsmobility posy ETV
vector 40 v5_0.node[4].veinsmobility acceleration ETV
vector 41 v5_0.node[4].veinsmobility co2emission ETV
vector 42 v5_0.node[5].veinsmobility acceleration ETV
vector 43 v5_0.node[5].veinsmobility co2emission ETV
vector 44 v5_0.node[6].veinsmobility acceleration ETV
vector 45 v5_0.node[6].veinsmobility co2emission ETV
vector 46 v5_0.node[7].veinsmobility speed ETV
vector 47 v5_0.node[7].veinsmobility acceleration ETV
vector 48 v5_0.node[7].veinsmobility co2emission ETV
vector 49 v5_0.node[8].nic.mac1609_4 channelBusy:vector ETV
attr recordingmode vector
attr source org_car2x_veins_modules_mac_sigChannelBusy
vector 50 v5_0.node[8].veinsmobility posx ETV
vector 51 v5_0.node[8].veinsmobility posy ETV
vector 52 v5_0.node[9].nic.mac1609_4 channelBusy:vector ETV
attr recordingmode vector
attr source org_car2x_veins_modules_mac_sigChannelBusy
vector 53 v5_0.node[9].veinsmobility posx ETV
vector 54 v5_0.node[9].veinsmobility posy ETV
vector 55 v5_0.node[10].nic.mac1609_4 channelBusy:vector ETV
attr recordingmode vector
attr source org_car2x_veins_modules_mac_sigChannelBusy
vector 56 v5_0.node[10].veinsmobility posx ETV
vector 57 v5_0.node[10].veinsmobility posy ETV
vector 58 v5_0.node[8].veinsmobility speed ETV
vector 59 v5_0.node[9].veinsmobility speed ETV
vector 60 v5_0.node[10].veinsmobility speed ETV
vector 61 v5_0.node[8].veinsmobility acceleration ETV
vector 62 v5_0.node[8].veinsmobility co2emission ETV
vector 63 v5_0.node[9].veinsmobility acceleration ETV
vector 64 v5_0.node[9].veinsmobility co2emission ETV
vector 65 v5_0.node[10].veinsmobility acceleration ETV
vector 66 v5_0.node[10].veinsmobility co2emission ETV
vector 67 v5_0.node[11].nic.mac1609_4 channelBusy:vector ETV
attr recordingmode vector
attr source org_car2x_veins_modules_mac_sigChannelBusy
vector 68 v5_0.node[11].veinsmobility posx ETV
vector 69 v5_0.node[11].veinsmobility posy ETV
vector 70 v5_0.node[11].veinsmobility speed ETV
vector 71 v5_0.node[12].nic.mac1609_4 channelBusy:vector ETV
attr recordingmode vector
attr source org_car2x_veins_modules_mac_sigChannelBusy
vector 72 v5_0.node[12].veinsmobility posx ETV
vector 73 v5_0.node[12].veinsmobility posy ETV
vector 74 v5_0.node[11].veinsmobility acceleration ETV
vector 75 v5_0.node[11].veinsmobility co2emission ETV
vector 76 v5_0.node[13].nic.mac1609_4 channelBusy:vector ETV
attr recordingmode vector
attr source org_car2x_veins_modules_mac_sigChannelBusy
vector 77 v5_0.node[13].veinsmobility posx ETV
vector 78 v5_0.node[13].veinsmobility posy ETV
vector 79 v5_0.node[12].veinsmobility speed ETV
vector 80 v5_0.node[12].veinsmobility acceleration ETV
vector 81 v5_0.node[12].veinsmobility co2emission ETV
vector 82 v5_0.node[13].veinsmobility speed ETV
vector 83 v5_0.node[14].nic.mac1609_4 channelBusy:vector ETV
attr recordingmode vector
attr source org_car2x_veins_modules_mac_sigChannelBusy
vector 84 v5_0.node[14].veinsmobility posx ETV
vector 85 v5_0.node[14].veinsmobility posy ETV
vector 86 v5_0.node[13].veinsmobility acceleration ETV
vector 87 v5_0.node[13].veinsmobility co2emission ETV
vector 88 v5_0.node[14].veinsmobility speed ETV
vector 89 v5_0.node[14].veinsmobility acceleration ETV
vector 90 v5_0.node[14].veinsmobility co2emission ETV
vector 91 v5_0.node[15].nic.mac1609_4 channelBusy:vector ETV
attr recordingmode vector
attr source org_car2x_veins_modules_mac_sigChannelBusy
vector 92 v5_0.node[15].veinsmobility posx ETV
vector 93 v5_0.node[15].veinsmobility posy ETV
vector 94 v5_0.node[16].nic.mac1609_4 channelBusy:vector ETV
attr recordingmode vector
attr source org_car2x_veins_modules_mac_sigChannelBusy
vector 95 v5_0.node[16].veinsmobility posx ETV
vector 96 v5_0.node[16].veinsmobility posy ETV
vector 97 v5_0.node[15].veinsmobility speed ETV
vector 98 v5_0.node[16].veinsmobility speed ETV
vector 99 v5_0.node[17].nic.mac1609_4 channelBusy:vector ETV
attr recordingmode vector
attr source org_car2x_veins_modules_mac_sigChannelBusy
vector 100 v5_0.node[17].veinsmobility posx ETV
vector 101 v5_0.node[17].veinsmobility posy ETV
vector 102 v5_0.node[15].veinsmobility acceleration ETV
vector 103 v5_0.node[15].veinsmobility co2emission ETV
vector 104 v5_0.node[16].veinsmobility acceleration ETV
vector 105 v5_0.node[16].veinsmobility co2emission ETV
vector 106 v5_0.node[17].veinsmobility speed ETV
vector 107 v5_0.node[17].veinsmobility acceleration ETV
vector 108 v5_0.node[17].veinsmobility co2emission ETV
vector 109 v5_0.node[18].nic.mac1609_4 channelBusy:vector ETV
attr recordingmode vector
attr source org_car2x_veins_modules_mac_sigChannelBusy
vector 110 v5_0.node[18].veinsmobility posx ETV
vector 111 v5_0.node[18].veinsmobility posy ETV
vector 112 v5_0.node[18].veinsmobility speed ETV
vector 113 v5_0.node[18].veinsmobility acceleration ETV
vector 114 v5_0.node[18].veinsmobility co2emission ETV
vector 115 v5_0.node[19].nic.mac1609_4 channelBusy:vector ETV
attr recordingmode vector
attr source org_car2x_veins_modules_mac_sigChannelBusy
vector 116 v5_0.node[19].veinsmobility posx ETV
vector 117 v5_0.node[19].veinsmobility posy ETV
vector 118 v5_0.node[19].veinsmobility speed ETV
vector 119 v5_0.node[20].nic.mac1609_4 channelBusy:vector ETV
attr recordingmode vector
attr source org_car2x_veins_modules_mac_sigChannelBusy
vector 120 v5_0.node[20].veinsmobility posx ETV
vector 121 v5_0.node[20].veinsmobility posy ETV
vector 122 v5_0.node[19].veinsmobility acceleration ETV
vector 123 v5_0.node[19].veinsmobility co2emission ETV
vector 124 v5_0.node[20].veinsmobility speed ETV
vector 125 v5_0.node[20].veinsmobility acceleration ETV
vector 126 v5_0.node[20].veinsmobility co2emission ETV
vector 127 v5_0.node[21].nic.mac1609_4 channelBusy:vector ETV
attr recordingmode vector
attr source org_car2x_veins_modules_mac_sigChannelBusy
vector 128 v5_0.node[21].veinsmobility posx ETV
vector 129 v5_0.node[21].veinsmobility posy ETV
vector 130 v5_0.node[21].veinsmobility speed ETV
vector 131 v5_0.node[21].veinsmobility acceleration ETV
vector 132 v5_0.node[21].veinsmobility co2emission ETV
vector 133 v5_0.node[0].appl startHelpRequests:vector ETV
attr interpolationmode none
attr recordingmode vector
attr source start_bus_help_rq
vector 134 v5_0.node[0].appl startTimeTask:vector ETV
attr interpolationmode none
attr recordingmode vector
attr source task_started
vector 135 v5_0.node[0].nic.mac1609_4 sentPackets:vector ETV
attr recordingmode vector
attr source org_car2x_veins_modules_mac_sigSentPacket
vector 136 v5_0.node[7].appl okMessageLoad:vector ETV
attr interpolationmode none
attr recordingmode vector
attr source ok_message_load
vector 137 v5_0.node[11].appl okMessageLoad:vector ETV
attr interpolationmode none
attr recordingmode vector
attr source ok_message_load
vector 138 v5_0.node[14].appl okMessageLoad:vector ETV
attr interpolationmode none
attr recordingmode vector
attr source ok_message_load
vector 139 v5_0.node[17].appl okMessageLoad:vector ETV
attr interpolationmode none
attr recordingmode vector
attr source ok_message_load
vector 140 v5_0.node[19].appl okMessageLoad:vector ETV
attr interpolationmode none
attr recordingmode vector
attr source ok_message_load
0	0	0	0
0	85	33.500015569273	1
0	129	33.500247569273	0
1	2	0.5	0
1	71	33.500012	1
1	105	33.500245	0
2	2	0.5	2631.7350595066
2	4	1	2631.6926603558
2	5	1.5	2631.6229630968
2	6	2	2631.5282912727
2	7	2.5	2631.4086490547
2	8	3	2631.2604225505
2	9	3.5	2631.0878849679
2	10	4	2630.892145407
2	11	4.5	2630.6724391839
2	12	5	2630.4276965775
2	13	5.5	2630.1573760558
2	14	6	2629.8625589869
2	15	6.5	2629.5448277204
2	16	7	2629.2030409186
2	17	7.5	2628.6408029457
2	18	8	2627.8116486142
2	19	8.5	2626.9391961291
2	20	9	2626.0184382494
2	21	9.5	2625.0464957781
2	22	10	2624.0224871623
2	23	10.5	2622.9469447999
2	24	11	2621.8176152725
2	25	11.5	2620.6311656146
2	26	12	2619.3974312966
2	27	12.5	2618.1143565062
2	28	13	2616.7776122186
2	29	13.5	2615.3838827169
2	30	14	2613.933876192
2	31	14.5	2612.430882662
2	32	15	2610.8750346797
2	33	15.5	2609.2680088609
2	34	16	2607.6054052793
2	35	16.5	2605.8840043985
2	36	17	2604.1164308966
2	37	17.5	2602.2985366323
2	38	18	2600.4298359854
2	39	18.5	2598.5080573106
2	40	19	2596.5386160006
2	41	19.5	2594.5145886635
2	42	20	2592.4347862339
2	43	20.5	2590.3038963825
2	44	21	2588.1187586169
2	45	21.5	2585.876224402
2	46	22	2583.5771736375
2	47	22.5	2581.2272843939
2	48	23	2578.8250272302
2	49	23.5	2576.3650223406
2	50	24	2573.8493392041
2	51	24.5	2571.2797833098
2	52	25	2568.6863330575
2	53	25.5	2566.0916482897
2	54	26	2563.498984852
2	55	26.5	2560.9030062138
2	56	27	2558.3092978451
2	57	27.5	2555.7130857587
2	58	28	2553.1184064959
2	59	28.5	2550.5230329406
2	60	29	2547.9285410434
2	61	29.5	2545.3335305103
2	62	30	2542.739428506
2	63	30.5	2540.1439816806
2	64	31	2537.5483003752
2	65	31.5	2534.9544071521
2	66	32	2532.3592119595
2	67	32.5	2529.7648866439
2	68	33	2527.1705369354
2	69	33.5	2524.5772709372
3	2	0.5	3022.4123751242
3	4	1	3022.0353440456
3	5	1.5	3021.415566708
3	6	2	3020.5737050353
3	7	2.5	3019.5097961174
3	8	3	3018.1917037079
3	9	3.5	3016.6574269645
3	10	4	3014.916828474
3	11	4.5	3012.9631083431
3	12	5	3010.786754163
3	13	5.5	3008.3829504047
3	14	6	3005.7613130454
3	15	6.5	3002.9359130058
3	16	7	2999.8966010297
3	17	7.5	2996.6450931979
3	18	8	2993.1979513299
3	19	8.5	2989.5708009005
3	20	9	2985.7428247118
3	21	9.5	2981.7020527357
3	22	10	2977.4448199878
3	23	10.5	2972.9733398687
3	24	11	2968.2782439757
3	25	11.5	2963.345675773
3	26	12	2958.2165254327
3	27	12.5	2952.8822460799
3	28	13	2947.324840147
3	29	13.5	2941.5305228094
3	30	14	2935.5022383137
3	31	14.5	2929.2536646416
3	32	15	2922.7853528736
3	33	15.5	2916.1042734012
3	34	16	2909.1921338886
3	35	16.5	2902.0355493743
3	36	17	2894.6870059334
3	37	17.5	2887.1292580068
3	38	18	2879.3602866642
3	39	18.5	2871.3706477275
3	40	19	2863.1828552512
3	41	19.5	2854.7681257948
3	42	20	2846.1215159176
3	43	20.5	2837.262514228
3	44	21	2828.1779812351
3	45	21.5	2818.8548271619
3	46	22	2809.2967101177
3	47	22.5	2799.5272362214
3	48	23	2789.5400469452
3	49	23.5	2779.3127761837
3	50	24	2768.854027628
3	51	24.5	2758.171307452
3	52	25	2747.3892484205
3	53	25.5	2736.6020569913
3	54	26	2725.8232690776
3	55	26.5	2715.0306984866
3	56	27	2704.2475663582
3	57	27.5	2693.4540252248
3	58	28	2682.6668566819
3	59	28.5	2671.8768016752
3	60	29	2661.0903363554
3	61	29.5	2650.3012150247
3	62	30	2639.5158710303
3	63	30.5	2628.7249357523
3	64	31	2617.933025592
3	65	31.5	2607.148549634
3	66	32	2596.3586605554
3	67	32.5	2585.5723881116
3	68	33	2574.7860142523
3	69	33.5	2564.0041460712
4	2	0.5	0
5	2	0.5	1287.3631844854
5	4	1	1287.3971152697
5	5	1.5	1287.4522898303
5	6	2	1287.5264110332
5	7	2.5	1287.62113957
5	8	3	1287.7358140606
5	9	3.5	1287.8709316116
5	10	4	1288.0250132503
5	11	4.5	1288.1995021269
5	12	5	1288.3803450145
5	13	5.5	1288.5613218796
5	14	6	1288.7420702237
5	15	6.5	1288.9232484703
5	16	7	1289.1040265976
5	17	7.5	1289.2841547827
5	18	8	1289.4648170919
5	19	8.5	1289.6461204254
5	20	9	1289.8267889973
5	21	9.5	1290.0076002722
5	22	10	1290.1889275151
5	23	10.5	1290.3695223263
5	24	11	1290.5501811963
5	25	11.5	1292.6540879257
5	26	12	1297.5639150366
5	27	12.5	1302.8378810985
5	28	13	1306.2425469026
5	29	13.5	1308.2562478072
5	30	14	1306.9227445516
5	31	14.5	1302.2154254551
5	32	15	1297.5804711034
5	33	15.5	1293.6998546909
5	34	16	1292.3351438564
5	35	16.5	1292.4916450585
5	36	17	1292.6480421006
5	37	17.5	1292.8044126967
5	38	18	1292.9607878359
5	39	18.5	1293.1163144546
5	40	19	1293.2722946536
5	41	19.5	1293.42863945
5	42	20	1293.5848936621
5	43	20.5	1293.7413971183
5	44	21	1293.8970749625
5	45	21.5	1294.0528945931
5	46	22	1294.2089592799
5	47	22.5	1294.3654001004
5	48	23	1294.5220096927
5	49	23.5	1294.6781146179
5	50	24	1294.8335943035
5	51	24.5	1294.9893859179
5	52	25	1295.1450464214
5	53	25.5	1295.3011772342
5	54	26	1295.4576196355
5	55	26.5	1295.5972772553
5	56	27	1295.7222422449
5	57	27.5	1295.8614929161
5	58	28	1296.0132666022
5	59	28.5	1296.1741153949
5	60	29	1296.3396362179
5	61	29.5	1296.5189786375
5	62	30	1296.7132164361
5	63	30.5	1296.8634114895
5	64	31	1296.9796594604
5	65	31.5	1297.0746293006
5	66	32	1297.1695770607
5	67	32.5	1297.2645506554
5	68	33	1297.359677108
5	69	33.5	1297.0053546188
6	2	0.5	1828.227079195
6	4	1	1827.4147938192
6	5	1.5	1826.0939434571
6	6	2	1824.3195203077
6	7	2.5	1822.0517682778
6	8	3	1819.3065204602
6	9	3.5	1816.071876375
6	10	4	1812.3832418723
6	11	4.5	1808.2060686797
6	12	5	1803.8767837603
6	13	5.5	1799.544291487
6	14	6	1795.2172698919
6	15	6.5	1790.8799566505
6	16	7	1786.5522220582
6	17	7.5	1782.2400467461
6	18	8	1777.9150847774
6	19	8.5	1773.5747770192
6	20	9	1769.2496651299
6	21	9.5	1764.9211369995
6	22	10	1760.5802568644
6	23	10.5	1756.2569107665
6	24	11	1751.9320311304
6	25	11.5	1748.6357935062
6	26	12	1748.9207613645
6	27	12.5	1749.2960902946
6	28	13	1744.5079231691
6	29	13.5	1738.9547530329
6	30	14	1732.2668259898
6	31	14.5	1727.1903217072
6	32	15	1722.99983963
6	33	15.5	1718.9507568683
6	34	16	1714.6683898177
6	35	16.5	1710.3294051997
6	36	17	1705.9933084091
6	37	17.5	1701.6579448339
6	38	18	1697.3224553019
6	39	18.5	1693.010490939
6	40	19	1688.6859510969
6	41	19.5	1684.3513028137
6	42	20	1680.0191659778
6	43	20.5	1675.6801188635
6	44	21	1671.363961787
6	45	21.5	1667.0438736901
6	46	22	1662.7169914255
6	47	22.5	1658.3796808859
6	48	23	1654.0376911573
6	49	23.5	1649.7096932884
6	50	24	1645.3990301434
6	51	24.5	1641.0797187919
6	52	25	1636.7640424827
6	53	25.5	1632.4353268854
6	54	26	1628.0979725132
6	55	26.5	1624.2259750105
6	56	27	1620.7613296257
6	57	27.5	1616.6744660605
6	58	28	1612.0453686332
6	59	28.5	1606.8896398498
6	60	29	1601.2832893953
6	61	29.5	1595.2087880848
6	62	30	1588.6297658775
6	63	30.5	1581.530589656
6	64	31	1574.2655425621
6	65	31.5	1567.0154586174
6	66	32	1559.7670602947
6	67	32.5	1552.5166897373
6	68	33	1545.2546498692
6	69	33.5	1538.0031152302
7	2	0.5	0
8	2	0.5	243.31602054439
8	4	1	243.30913937406
8	5	1.5	243.29782204749
8	6	2	243.28247408115
8	7	2.5	243.26342766208
8	8	3	243.24040584138
8	9	3.5	243.21380397596
8	10	4	243.18310993013
8	11	4.5	243.1484340321
8	12	5	243.10924115102
8	13	5.5	243.0663145869
8	14	6	243.01953350392
8	15	6.5	242.96903013124
8	16	7	242.91449734592
8	17	7.5	242.85595049639
8	18	8	242.79419269238
8	19	8.5	242.73295519606
8	20	9	242.26508669544
8	21	9.5	241.68610673898
8	22	10	241.10712287819
8	23	10.5	240.52771094977
8	24	11	239.94936719164
8	25	11.5	239.37215495552
8	26	12	238.79357286438
8	27	12.5	238.21557328652
8	28	13	237.63733651803
8	29	13.5	237.05823889328
8	30	14	236.48010755552
8	31	14.5	235.90121453989
8	32	15	235.80409846641
8	33	15.5	235.0742950117
8	34	16	232.5949971755
8	35	16.5	230.11229897349
8	36	17	227.62779660232
8	37	17.5	225.14764125971
8	38	18	222.66813646222
8	39	18.5	220.19162743364
8	40	19	217.70837988122
8	41	19.5	215.22731687815
8	42	20	212.75282488286
8	43	20.5	210.27264811459
8	44	21	207.79659313092
8	45	21.5	205.31452671322
8	46	22	202.83089691552
8	47	22.5	200.3480367423
8	48	23	197.87148526474
8	49	23.5	195.38814299658
8	50	24	192.90354517207
8	51	24.5	190.41885485034
8	52	25	187.93716550677
8	53	25.5	185.45432597469
8	54	26	182.97469523118
8	55	26.5	180.49361961486
8	56	27	179.61417745787
8	57	27.5	178.8559691062
8	58	28	178.09591954772
8	59	28.5	177.33738778485
8	60	29	176.57814397954
8	61	29.5	175.81934606808
8	62	30	175.05880281387
8	63	30.5	174.29889175657
8	64	31	173.54065930506
8	65	31.5	172.78142890846
8	66	32	172.02238947642
8	67	32.5	171.26402847329
8	68	33	170.50400739827
8	69	33.5	169.79079523124
9	2	0.5	2497.1688996973
9	4	1	2496.3316489356
9	5	1.5	2494.9546389403
9	6	2	2493.0872100228
9	7	2.5	2490.7697802708
9	8	3	2487.9686525557
9	9	3.5	2484.7319310447
9	10	4	2480.9973027781
9	11	4.5	2476.7781916922
9	12	5	2472.0094869528
9	13	5.5	2466.7864948306
9	14	6	2461.0945128687
9	15	6.5	2454.9496297827
9	16	7	2448.3144770721
9	17	7.5	2441.1909222081
9	18	8	2433.5380245307
9	19	8.5	2425.5499333367
9	20	9	2417.5871251784
9	21	9.5	2409.6034747697
9	22	10	2401.6197705222
9	23	10.5	2393.6301635792
9	24	11	2385.6552858138
9	25	11.5	2377.6960107926
9	26	12	2369.7178466134
9	27	12.5	2361.7477148054
9	28	13	2353.7743123379
9	29	13.5	2345.7890393818
9	30	14	2337.8170907153
9	31	14.5	2329.834639146
9	32	15	2321.8400533656
9	33	15.5	2313.9513235185
9	34	16	2306.358641657
9	35	16.5	2298.7555464059
9	36	17	2291.1469260082
9	37	17.5	2283.5516180908
9	38	18	2275.9583024252
9	39	18.5	2268.3741610982
9	40	19	2260.7693834985
9	41	19.5	2253.1712959325
9	42	20	2245.5933316341
9	43	20.5	2237.9979581023
9	44	21	2230.4152072575
9	45	21.5	2222.814046802
9	46	22	2215.2080986015
9	47	22.5	2207.6045073243
9	48	23	2200.0202360004
9	49	23.5	2192.4151683394
9	50	24	2184.8062556228
9	51	24.5	2177.1970596397
9	52	25	2169.5970539479
9	53	25.5	2161.9935258832
9	54	26	2154.399824515
9	55	26.5	2146.8016983224
9	56	27	2138.8746753475
9	57	27.5	2130.9304732559
9	58	28	2122.9669797411
9	59	28.5	2115.019389079
9	60	29	2107.0643379204
9	61	29.5	2099.1139586596
9	62	30	2091.1452923995
9	63	30.5	2083.1832500445
9	64	31	2075.2387954444
9	65	31.5	2067.2838847786
9	66	32	2059.3309749616
9	67	32.5	2051.3851734512
9	68	33	2043.4219783731
9	69	33.5	2035.4573568702
10	2	0.5	0
11	2	0.5	1630.0247913966
11	4	1	1630.0082108838
11	5	1.5	1629.9812774651
11	6	2	1629.8417228467
11	7	2.5	1629.598968075
11	8	3	1629.3054750046
11	9	3.5	1628.9658557308
11	10	4	1628.5728588598
11	11	4.5	1628.1282675097
11	12	5	1627.6355270261
11	13	5.5	1627.0910144426
11	14	6	1626.4940830157
11	15	6.5	1625.8345458684
11	16	7	1625.0961785339
11	17	7.5	1624.322276724
11	18	8	1623.6989221299
11	19	8.5	1623.0772683261
11	20	9	1622.4546982928
11	21	9.5	1621.8158716178
11	22	10	1621.1479699811
11	23	10.5	1620.4805658566
11	24	11	1619.8128705663
11	25	11.5	1619.1453593093
11	26	12	1618.477649382
11	27	12.5	1617.8102521775
11	28	13	1617.1432332682
11	29	13.5	1616.4748463017
11	30	14	1615.5620805648
11	31	14.5	1614.8538707139
11	32	15	1614.1444828574
11	33	15.5	1613.4359561502
11	34	16	1612.7275783645
11	35	16.5	1612.0191638161
11	36	17	1611.3111493622
11	37	17.5	1610.6013700862
11	38	18	1609.9844655549
11	39	18.5	1609.3916057335
11	40	19	1608.7978704775
11	41	19.5	1608.2024692262
11	42	20	1607.5996517522
11	43	20.5	1606.9399328879
11	44	21	1606.2808350986
11	45	21.5	1605.6199371605
11	46	22	1604.9601680936
11	47	22.5	1604.3006430242
11	48	23	1603.6409381006
11	49	23.5	1602.9812482408
11	50	24	1602.3200556216
11	51	24.5	1601.6594453757
11	52	25	1600.9992167008
11	53	25.5	1600.3514186537
11	54	26	1599.7119629709
11	55	26.5	1599.074586045
11	56	27	1598.4685066192
11	57	27.5	1598.2871992715
11	58	28	1600.1327301846
11	59	28.5	1604.5245775143
11	60	29	1608.8714928426
11	61	29.5	1613.2086702916
11	62	30	1617.5543518139
11	63	30.5	1621.8981999634
11	64	31	1626.2505997774
11	65	31.5	1630.5994169144
11	66	32	1634.9475009422
11	67	32.5	1639.3068751593
11	68	33	1643.6594599589
11	69	33.5	1648.0111841358
12	2	0.5	360.29248770513
12	4	1	361.13602129091
12	5	1.5	362.5062589664
12	6	2	364.3352372963
12	7	2.5	366.71067855973
12	8	3	369.58261201344
12	9	3.5	372.90590667538
12	10	4	376.75151999667
12	11	4.5	381.10200353526
12	12	5	385.9236433683
12	13	5.5	391.25189150218
12	14	6	397.09307655133
12	15	6.5	403.44417801127
12	16	7	410.23715748917
12	17	7.5	417.44994158298
12	18	8	424.71971334238
12	19	8.5	431.96964991186
12	20	9	439.23027185909
12	21	9.5	446.49580528866
12	22	10	453.75826318469
12	23	10.5	461.01531136036
12	24	11	468.27552554011
12	25	11.5	475.5337386271
12	26	12	482.7941119615
12	27	12.5	490.05108489189
12	28	13	497.30394441355
12	29	13.5	504.57167956606
12	30	14	511.7895232439
12	31	14.5	519.03953384049
12	32	15	526.30160379037
12	33	15.5	533.55485807359
12	34	16	540.80658783298
12	35	16.5	548.05869393703
12	36	17	555.30670423526
12	37	17.5	562.57278118469
12	38	18	569.83576083463
12	39	18.5	577.08640474733
12	40	19	584.34775517788
12	41	19.5	591.61120824516
12	42	20	598.88374377042
12	43	20.5	606.13970067352
12	44	21	613.38882664684
12	45	21.5	620.65775166359
12	46	22	627.91426072363
12	47	22.5	635.16808616463
12	48	23	642.42388973851
12	49	23.5	649.67952763475
12	50	24	656.95169372018
12	51	24.5	664.21745453775
12	52	25	671.47901862208
12	53	25.5	678.73389636446
12	54	26	685.99258249253
12	55	26.5	693.2482074732
12	56	27	700.15127387363
12	57	27.5	706.0995322438
12	58	28	711.40140250884
12	59	28.5	713.50090264063
12	60	29	713.69153064582
12	61	29.5	713.86569899227
12	62	30	714.04020883795
12	63	30.5	714.21464506071
12	64	31	714.38942469377
12	65	31.5	714.56406045612
12	66	32	714.73866677936
12	67	32.5	714.91372648347
12	68	33	715.08851354383
12	69	33.5	715.26326604467
13	4	1	0.96315724250003
13	5	1.5	1.4163082134939
13	6	2	1.8730117260368
13	7	2.5	2.3571391038766
13	8	3	2.8579845126981
13	9	3.5	3.226170594006
13	10	4	3.6683751018142
13	11	4.5	4.096395278115
13	12	5	4.5673459860759
13	13	5.5	5.0041966364236
13	14	6	5.4528541425599
13	15	6.5	5.8326756184112
13	16	7	6.3185249040166
13	17	7.5	6.8164614663955
13	18	8	7.2483342648793
13	19	8.5	7.6306189449347
13	20	9	8.0300661469979
13	21	9.5	8.4971491859045
13	22	10	8.9360353771627
13	23	10.5	9.3978944510204
13	24	11	9.8634379853105
13	25	11.5	10.317759716001
13	26	12	10.714327577011
13	27	12.5	11.151482744485
13	28	13	11.636657540172
13	29	13.5	12.128458942918
13	30	14	12.574270750012
13	31	14.5	13.063242460064
13	32	15	13.48613080303
13	33	15.5	13.890868600824
13	34	16	14.428135147968
13	35	16.5	14.888480121305
13	36	17	15.285900480401
13	37	17.5	15.704661329704
13	38	18	16.182874826592
13	39	18.5	16.576163220711
13	40	19	17.04590348
13	41	19.5	17.511949481893
13	42	20	17.948874973443
13	43	20.5	18.398306984392
13	44	21	18.875087373511
13	45	21.5	19.375399535641
13	46	22	19.816389375537
13	47	22.5	20.27372128587
13	48	23	20.748558687948
13	49	23.5	21.214605076791
13	50	24	21.723559591782
13	51	24.5	22.158030788045
13	52	25	22.180865816828
13	53	25.5	22.164680755404
13	54	26	22.164840675383
13	55	26.5	22.218768838248
13	56	27	22.171807797495
13	57	27.5	22.215426433589
13	58	28	22.199853998441
13	59	28.5	22.167198591596
13	60	29	22.16194917758
13	61	29.5	22.206758969524
13	62	30	22.178201122959
13	63	30.5	22.214963697381
13	64	31	22.198859407622
13	65	31.5	22.2038517011
13	66	32	22.186262325868
13	67	32.5	22.202624620232
13	68	33	22.219863656233
13	69	33.5	22.167788052191
14	4	1	2.0116060111359
14	5	1.5	3.0081261322249
14	6	2	3.9596735773885
14	7	2.5	4.9147222280081
14	8	3	5.889326381562
14	9	3.5	6.8788821249406
14	10	4	7.7938837797867
14	11	4.5	8.7023372510245
14	12	5	8.6754488682753
14	13	5.5	8.6928926480847
14	14	6	8.6739304756915
14	15	6.5	8.6486439504597
14	16	7	8.6071240203461
14	17	7.5	8.6096484815405
14	18	8	8.6765494632844
14	19	8.5	8.691906216222
14	20	9	8.6895699835668
14	21	9.5	8.6917188767746
14	22	10	8.6876668885426
14	23	10.5	8.6548053989519
14	24	11	8.6498789012042
14	25	11.5	9.3105579491106
14	26	12	10.306217582808
14	27	12.5	11.226979594259
14	28	13	12.140981362973
14	29	13.5	13.117551298785
14	30	14	13.969481934591
14	31	14.5	13.8435789962
14	32	15	11.61471192603
14	33	15.5	10.5303115453
14	34	16	8.727996280003
14	35	16.5	8.6786673143745
14	36	17	8.6113086891018
14	37	17.5	8.6799250831228
14	38	18	8.7312646191504
14	39	18.5	8.6191957829014
14	40	19	8.6255628256739
14	41	19.5	8.640095662757
14	42	20	8.7224545112398
14	43	20.5	8.7102991879225
14	44	21	8.6680538501061
14	45	21.5	8.687159623318
14	46	22	8.6143776310661
14	47	22.5	8.701649005111
14	48	23	8.694289473822
14	49	23.5	8.6238870165713
14	50	24	8.6729226478452
14	51	24.5	8.6525806385588
14	52	25	8.6307179475512
14	53	25.5	8.6969431934116
14	54	26	8.6335482753773
14	55	26.5	6.8635875598246
14	56	27	7.4535875598246
14	57	27.5	8.6192236613829
14	58	28	9.7195325001443
14	59	28.5	10.723088909916
14	60	29	11.642868467171
14	61	29.5	12.546221441766
14	62	30	13.645800116907
14	63	30.5	14.559675122629
14	64	31	14.495002092735
14	65	31.5	14.541947132022
14	66	32	14.435276740821
14	67	32.5	14.540433851882
14	68	33	14.548035021111
14	69	33.5	14.47648254187
15	4	1	2.1311671961367
15	5	1.5	3.1435446060073
15	6	2	4.0758362758249
15	7	2.5	4.9786327199658
15	8	3	5.9862471878199
15	9	3.5	6.8543556765883
15	10	4	7.8430037378912
15	11	4.5	8.8951558063409
15	12	5	9.8639746389535
15	13	5.5	10.884495384309
15	14	6	11.750328246459
15	15	6.5	12.627083729126
15	16	7	13.680306829451
15	17	7.5	14.66311544073
15	18	8	15.631815495721
15	19	8.5	15.944889718909
15	20	9	15.933076143798
15	21	9.5	16.02704194391
15	22	10	16.012680860139
15	23	10.5	16.046975723119
15	24	11	15.991224413538
15	25	11.5	15.957330957596
15	26	12	16.006943297596
15	27	12.5	16.009157720807
15	28	13	15.938132288733
15	29	13.5	15.992241283309
15	30	14	16.031916167154
15	31	14.5	15.994183716753
15	32	15	16.050449797989
15	33	15.5	15.941528713664
15	34	16	16.035602408029
15	35	16.5	15.973466740693
15	36	17	16.029840288526
15	37	17.5	15.964652343749
15	38	18	16.008472060718
15	39	18.5	15.930056551905
15	40	19	16.034577265534
15	41	19.5	15.948862201169
15	42	20	15.927917716687
15	43	20.5	16.009976792937
15	44	21	15.924553301391
15	45	21.5	15.971704688843
15	46	22	15.946442086124
15	47	22.5	16.03932738042
15	48	23	15.927726235763
15	49	23.5	15.9891791369
15	50	24	15.975600421213
15	51	24.5	16.029597706406
15	52	25	15.938564928819
15	53	25.5	16.017461132803
15	54	26	15.986677580064
15	55	26.5	15.991367802329
15	56	27	15.941091452837
15	57	27.5	15.935278603801
15	58	28	15.940887910151
15	59	28.5	16.015791453997
15	60	29	16.044431088586
15	61	29.5	15.951873005662
15	62	30	16.049907877285
15	63	30.5	15.949109528975
15	64	31	15.976399861407
15	65	31.5	16.039754499081
15	66	32	15.938170450274
15	67	32.5	16.040572454352
15	68	33	15.990110049562
15	69	33.5	16.007202510792
16	4	1	2.1601955810489
16	5	1.5	3.1144628968242
16	6	2	4.1105820955232
16	7	2.5	5.2289444127435
16	8	3	6.0858094900696
16	9	3.5	7.0473769874488
16	10	4	8.1433097840416
16	11	4.5	9.173221089911
16	12	5	10.05867896536
16	13	5.5	11.148680243594
16	14	6	12.171584089579
16	15	6.5	13.106705217048
16	16	7	13.99409036707
16	17	7.5	14.543085340356
16	18	8	14.602687780525
16	19	8.5	14.517289030695
16	20	9	14.570008487972
16	21	9.5	14.575677133071
16	22	10	14.560443590894
16	23	10.5	14.61913622578
16	24	11	14.54825024424
16	25	11.5	14.519225431246
16	26	12	14.543037858788
16	27	12.5	14.612220510697
16	28	13	14.538531441971
16	29	13.5	14.588886783152
16	30	14	14.586384882714
16	31	14.5	14.525227403968
16	32	15	14.635057979818
16	33	15.5	14.556876347599
16	34	16	14.55173467303
16	35	16.5	14.521861440282
16	36	17	14.524333486348
16	37	17.5	14.61959528806
16	38	18	14.517940223239
16	39	18.5	14.534069228821
16	40	19	14.557720358247
16	41	19.5	14.618730225999
16	42	20	14.640260186026
16	43	20.5	14.559702563066
16	44	21	14.570991012117
16	45	21.5	14.576682747238
16	46	22	14.547124937753
16	47	22.5	14.542483149316
16	48	23	14.608776330758
16	49	23.5	14.563148345725
16	50	24	14.584590232608
16	51	24.5	14.596463933828
16	52	25	14.632218628198
16	53	25.5	14.640536238936
16	54	26	14.56424671979
16	55	26.5	14.59985831915
16	56	27	12.99679047554
16	57	27.5	11.634470266352
16	58	28	11.410184876751
16	59	28.5	9.1768068300144
16	60	29	8.6692932682091
16	61	29.5	8.6545815453751
16	62	30	8.7020650549073
16	63	30.5	8.6871573199102
16	64	31	8.6874157221059
16	65	31.5	8.6518976251481
16	66	32	8.7110292333926
16	67	32.5	8.774150936534
16	68	33	8.7104188366423
16	69	33.5	8.6722553810503
17	5	1.5	0.90630194198784
17	6	2	0.91340702508576
17	7	2.5	0.96825475567952
17	8	3	1.001690817643
17	9	3.5	0.73637216261588
17	10	4	0.8844090156164
17	11	4.5	0.85604035260156
17	12	5	0.94190141592175
17	13	5.5	0.87370130069554
17	14	6	0.89731501227245
17	15	6.5	0.7596429517027
17	16	7	0.97169857121073
17	17	7.5	0.99587312475778
17	18	8	0.86374559696764
17	19	8.5	0.76456936011091
17	20	9	0.79889440412633
17	21	9.5	0.93416607781313
17	22	10	0.87777238251641
17	23	10.5	0.92371814771554
17	24	11	0.93108706858008
17	25	11.5	0.90864346138201
17	26	12	0.79313572201877
17	27	12.5	0.87431033494881
17	28	13	0.97034959137439
17	29	13.5	0.98360280549153
17	30	14	0.89162361418827
17	31	14.5	0.97794342010281
17	32	15	0.84577668593264
17	33	15.5	0.80947559558786
17	34	16	1.0745330942888
17	35	16.5	0.9206899466738
17	36	17	0.79484071819111
17	37	17.5	0.83752169860526
17	38	18	0.95642699377611
17	39	18.5	0.78657678823919
17	40	19	0.93948051857763
17	41	19.5	0.93209200378508
17	42	20	0.87385098310188
17	43	20.5	0.89886402189732
17	44	21	0.95356077823789
17	45	21.5	1.0006243242603
17	46	22	0.88197967979127
17	47	22.5	0.91466382066721
17	48	23	0.94967480415479
17	49	23.5	0.93209277768621
17	50	24	1.017909029983
17	51	24.5	0.86894239252434
17	52	25	0.045670057566518
17	53	25.5	-0.032370122848079
17	54	26	0.00031983995810236
17	55	26.5	0.10785632573068
17	56	27	-0.093922081505873
17	57	27.5	0.087237272188062
17	58	28	-0.031144870296117
17	59	28.5	-0.065310813691468
17	60	29	-0.010498828031125
17	61	29.5	0.089619583887981
17	62	30	-0.057115693129596
17	63	30.5	0.073525148844347
17	64	31	-0.032208579517906
17	65	31.5	0.00998458695598
17	66	32	-0.035178750464688
17	67	32.5	0.032724588727575
17	68	33	0.034478072002528
17	69	33.5	-0.10415120808408
18	5	1.5	1.4879334530051
18	6	2	1.6132692118776
18	7	2.5	1.774955217919
18	8	3	1.9399645462544
18	9	3.5	1.8412670129931
18	10	4	2.0734096271212
18	11	4.5	2.1590699722102
18	12	5	2.3759099330688
18	13	5.5	2.4166726257484
18	14	6	2.5672189760482
18	15	6.5	2.4775098225192
18	16	7	2.917777159353
18	17	7.5	3.1040721566467
18	18	8	3.0036717065378
18	19	8.5	2.9251724004981
18	20	9	3.0912608129898
18	21	9.5	3.4895749885006
18	22	10	3.4973498690651
18	23	10.5	3.7321536620711
18	24	11	3.8877343570021
18	25	11.5	3.9686114283298
18	26	12	3.7884802178906
18	27	12.5	4.125769287589
18	28	13	4.5381993626689
18	29	13.5	4.7349194209254
18	30	14	4.6022211168677
18	31	14.5	5.0249056725594
18	32	15	4.7360653077296
18	33	15.5	4.7375822630564
18	34	16	5.8198207003021
18	35	16.5	5.436646094345
18	36	17	5.1054553725593
18	37	17.5	5.3952794666825
18	38	18	6.0123039844926
18	39	18.5	5.4726451858172
18	40	19	6.2492831936675
18	41	19.5	6.3846666731497
18	42	20	6.2900284828632
18	43	20.5	6.5584059619124
18	44	21	6.979394747501
18	45	21.5	7.3889868488056
18	46	22	6.9969201746262
18	47	22.5	7.3268128966839
18	48	23	7.6848236919857
18	49	23.5	7.7809399716037
18	50	24	8.4341171123639
18	51	24.5	7.8241302729532
18	52	25	3.4322488973582
18	53	25.5	3.0122184874303
18	54	26	3.186867571593
18	55	26.5	3.7726616397231
18	56	27	2.6845802681854
18	57	27.5	3.6615635820428
18	58	28	3.024992586619
18	59	28.5	2.8366842640672
18	60	29	3.1285514041701
18	61	29.5	3.6725279413924
18	62	30	2.8823434043574
18	63	30.5	3.5880561904034
18	64	31	3.0191254708464
18	65	31.5	3.2457905438584
18	66	32	3.0010149873039
18	67	32.5	3.3672386895244
18	68	33	3.3799531015792
18	69	33.5	2.6292813398718
19	5	1.5	1.9930402421779
19	6	2	1.9030948903272
19	7	2.5	1.9100973012391
19	8	3	1.9492083071079
19	9	3.5	1.9791114867572
19	10	4	1.8300033096923
19	11	4.5	1.8169069424755
19	12	5	-0.053776765498334
19	13	5.5	0.034887559618802
19	14	6	-0.037924344786443
19	15	6.5	-0.050573050463573
19	16	7	-0.083039860227146
19	17	7.5	0.0050489223888164
19	18	8	0.13380196348764
19	19	8.5	0.030713505875319
19	20	9	-0.0046724653104313
19	21	9.5	0.004297786415556
19	22	10	-0.0081039764639002
19	23	10.5	-0.065722979181448
19	24	11	-0.0098529954953115
19	25	11.5	1.3213580958126
19	26	12	1.9913192673959
19	27	12.5	1.8415240229014
19	28	13	1.8280035374267
19	29	13.5	1.9531398716243
19	30	14	1.7038612716133
19	31	14.5	-0.25180587678362
19	32	15	-4.4577341403393
19	33	15.5	-2.1688007614607
19	34	16	-3.604630530593
19	35	16.5	-0.098657931257041
19	36	17	-0.13471725054551
19	37	17.5	0.13723278804217
19	38	18	0.10267907205504
19	39	18.5	-0.22413767249789
19	40	19	0.012734085544945
19	41	19.5	0.029065674166194
19	42	20	0.16471769696567
19	43	20.5	-0.02431064663455
19	44	21	-0.084490675632843
19	45	21.5	0.038211546423845
19	46	22	-0.14556398450397
19	47	22.5	0.17454274808988
19	48	23	-0.014719062577932
19	49	23.5	-0.1408049145015
19	50	24	0.098071262547748
19	51	24.5	-0.040684018572794
19	52	25	-0.043725382015108
19	53	25.5	0.13245049172081
19	54	26	-0.12678983606864
19	55	26.5	-3.5399214311054
19	56	27	1.18
19	57	27.5	2.3312722031167
19	58	28	2.2006176775228
19	59	28.5	2.0071128195431
19	60	29	1.8395591145102
19	61	29.5	1.8067059491901
19	62	30	2.1991573502822
19	63	30.5	1.8277500114438
19	64	31	-0.12934605978895
19	65	31.5	0.093890078575349
19	66	32	-0.21334078240208
19	67	32.5	0.21031422212254
19	68	33	0.015202338458039
19	69	33.5	-0.14310495848302
20	5	1.5	2.7024978186224
20	6	2	3.1228378106583
20	7	2.5	3.6204637772488
20	8	3	4.1795362644611
20	9	3.5	4.7528987655501
20	10	4	4.9670552711745
20	11	4.5	5.4012137681428
20	12	5	1.4763863221932
20	13	5.5	1.6631169338868
20	14	6	1.5094392617643
20	15	6.5	1.4815608496612
20	16	7	1.4118609613406
20	17	7.5	1.5947617075035
20	18	8	1.8686843153561
20	19	8.5	1.6542968023021
20	20	9	1.5800130897105
20	21	9.5	1.5989493362405
20	22	10	1.5726989615504
20	23	10.5	1.4503109526041
20	24	11	1.5665168497934
20	25	11.5	4.5986223214663
20	26	12	6.6543354336105
20	27	12.5	6.7649307342819
20	28	13	7.2096996505112
20	29	13.5	8.1258220546014
20	30	14	7.7720176419972
20	31	14.5	1.1827992916936
20	32	15	0.973
20	33	15.5	0.973
20	34	16	0.973
20	35	16.5	1.3826954261668
20	36	17	1.304817640411
20	37	17.5	1.8762032725321
20	38	18	1.8087470297667
20	39	18.5	0.973
20	40	19	1.6118519283161
20	41	19.5	1.6469044146001
20	42	20	1.9383301795746
20	43	20.5	1.540200424566
20	44	21	1.4118099234401
20	45	21.5	1.6696313039536
20	46	22	1.2824106146412
20	47	22.5	1.9566670594839
20	48	23	1.559283384157
20	49	23.5	1.2926225771186
20	50	24	1.7936333750039
20	51	24.5	1.5024057383261
20	52	25	1.4947869259891
20	53	25.5	1.8679195817618
20	54	26	1.3221211084191
20	55	26.5	0.973
20	56	27	3.6274655817342
20	57	27.5	6.4275397243869
20	58	28	6.8184352928874
20	59	28.5	6.9280943490295
20	60	29	6.9791268426376
20	61	29.5	7.3604933744918
20	62	30	9.235236049927
20	63	30.5	8.5108373453007
20	64	31	1.6387323372405
20	65	31.5	2.4246313835492
20	66	32	1.3420402189006
20	67	32.5	2.8324141351834
20	68	33	2.1495345190754
20	69	33.5	1.5893367870315
21	5	1.5	2.0247548197413
21	6	2	1.8645833396353
21	7	2.5	1.8055928882817
21	8	3	2.0152289357083
21	9	3.5	1.7362169775367
21	10	4	1.9772961226059
21	11	4.5	2.1043041368993
21	12	5	1.9376376652252
21	13	5.5	2.0410414907103
21	14	6	1.7316657243017
21	15	6.5	1.7535109653324
21	16	7	2.1064462006511
21	17	7.5	1.9656172225578
21	18	8	1.9374001099821
21	19	8.5	0.62614844637606
21	20	9	-0.023627150221728
21	21	9.5	0.18793160022236
21	22	10	-0.028722167541275
21	23	10.5	0.068589725960045
21	24	11	-0.1115026191622
21	25	11.5	-0.067786911884323
21	26	12	0.099224680000916
21	27	12.5	0.0044288464216535
21	28	13	-0.14205086414702
21	29	13.5	0.10821798915043
21	30	14	0.079349767691454
21	31	14.5	-0.075464900801887
21	32	15	0.11253216247075
21	33	15.5	-0.21784216864966
21	34	16	0.18814738872926
21	35	16.5	-0.12427133467048
21	36	17	0.11274709566496
21	37	17.5	-0.13037588955369
21	38	18	0.087639433937149
21	39	18.5	-0.15683101762552
21	40	19	0.20904142725747
21	41	19.5	-0.17143012872897
21	42	20	-0.041888968963178
21	43	20.5	0.16411815249827
21	44	21	-0.17084698309191
21	45	21.5	0.094302774905227
21	46	22	-0.050525205438024
21	47	22.5	0.18577058859169
21	48	23	-0.22320228931494
21	49	23.5	0.12290580227506
21	50	24	-0.027157431375237
21	51	24.5	0.10799457038753
21	52	25	-0.1820655551739
21	53	25.5	0.15779240796808
21	54	26	-0.061567105478609
21	55	26.5	0.0093804445303967
21	56	27	-0.10055269898381
21	57	27.5	-0.011625698073765
21	58	28	0.011218612701629
21	59	28.5	0.14980708769057
21	60	29	0.057279269178402
21	61	29.5	-0.18511616584845
21	62	30	0.19606974324677
21	63	30.5	-0.20159669661894
21	64	31	0.054580664862879
21	65	31.5	0.12670927534812
21	66	32	-0.20316809761338
21	67	32.5	0.20480400815606
21	68	33	-0.10092480957974
21	69	33.5	0.034184922459534
22	5	1.5	2.7984568684538
22	6	2	3.1444097541456
22	7	2.5	3.5280106963949
22	8	3	4.3259352163484
22	9	3.5	4.3384594692947
22	10	4	5.2703279254748
22	11	4.5	6.1151855528723
22	12	5	6.2806852194509
22	13	5.5	7.1081769084565
22	14	6	6.7304899914031
22	15	6.5	7.2412740892781
22	16	7	8.9513099409504
22	17	7.5	9.0547083895803
22	18	8	9.5156421158074
22	19	8.5	4.6597810862715
22	20	9	2.1615420551011
22	21	9.5	2.9893392055865
22	22	10	2.1508955436355
22	23	10.5	2.5310910794497
22	24	11	1.8294600174731
22	25	11.5	1.9944571009003
22	26	12	2.6438280591366
22	27	12.5	2.2784031518175
22	28	13	1.7072368803552
22	29	13.5	2.6763856360336
22	30	14	2.5706154503682
22	31	14.5	1.9686439407229
22	32	15	2.7015403788886
22	33	15.5	1.4163403560233
22	34	16	2.9915835300722
22	35	16.5	1.7786689819263
22	36	17	2.6993480398884
22	37	17.5	1.7543976624049
22	38	18	2.599350566667
22	39	18.5	1.6498124028048
22	40	19	3.0721560686166
22	41	19.5	1.5952186805004
22	42	20	2.090859451362
22	43	20.5	2.8946476406373
22	44	21	1.5955773137956
22	45	21.5	2.6198434412076
22	46	22	2.0596801512887
22	47	22.5	2.9830101723249
22	48	23	1.394852632666
22	49	23.5	2.7325389619537
22	50	24	2.1527590572988
22	51	24.5	2.6809528343535
22	52	25	1.5535692012185
22	53	25.5	2.8714179211643
22	54	26	2.0214317352524
22	55	26.5	2.2953468566745
22	56	27	1.8669144647108
22	57	27.5	2.2078811380704
22	58	28	2.2962931261129
22	59	28.5	2.8403333913287
22	60	29	2.4870104636654
22	61	29.5	1.542837195467
22	62	30	3.0245865350905
22	63	30.5	1.4792855239854
22	64	31	2.4675661406151
22	65	31.5	2.7547740711531
22	66	32	1.4724827522418
22	67	32.5	3.0567937273257
22	68	33	1.8701200591093
22	69	33.5	2.3929589674184
23	5	1.5	1.9085346315506
23	6	2	1.992238397398
23	7	2.5	2.2367246344406
23	8	3	1.7137301546521
23	9	3.5	1.9231349947583
23	10	4	2.1918655931856
23	11	4.5	2.0598226117389
23	12	5	1.7709157508984
23	13	5.5	2.1800025564665
23	14	6	2.0458076919708
23	15	6.5	1.8702422549389
23	16	7	1.7747703000437
23	17	7.5	1.0979899465706
23	18	8	0.11920488033909
23	19	8.5	-0.1707974996604
23	20	9	0.10543891455512
23	21	9.5	0.011337290196682
23	22	10	-0.03046708435286
23	23	10.5	0.11738526977133
23	24	11	-0.14177196308039
23	25	11.5	-0.058049625987184
23	26	12	0.047624855083413
23	27	12.5	0.13836530381814
23	28	13	-0.1473781374516
23	29	13.5	0.10071068236138
23	30	14	-0.0050038008764375
23	31	14.5	-0.12231495749205
23	32	15	0.21966115170159
23	33	15.5	-0.1563632644387
23	34	16	-0.010283349137751
23	35	16.5	-0.059746465496719
23	36	17	0.0049440921330834
23	37	17.5	0.1905236034235
23	38	18	-0.20331012964249
23	39	18.5	0.032258011163211
23	40	19	0.04730225885287
23	41	19.5	0.12201973550487
23	42	20	0.043059920053931
23	43	20.5	-0.16111524592154
23	44	21	0.02257689810358
23	45	21.5	0.011383470240983
23	46	22	-0.059115618970246
23	47	22.5	-0.0092835768731305
23	48	23	0.13258636288345
23	49	23.5	-0.091255970066413
23	50	24	0.042883773767389
23	51	24.5	0.023747402438893
23	52	25	0.071509388741106
23	53	25.5	0.016635221475738
23	54	26	-0.15257903829217
23	55	26.5	0.071223198720254
23	56	27	-3.2061356872211
23	57	27.5	-2.7246404183749
23	58	28	-0.4485707792018
23	59	28.5	-4.4667560934741
23	60	29	-1.0150271236105
23	61	29.5	-0.029423445668073
23	62	30	0.094967019064352
23	63	30.5	-0.029815469994212
23	64	31	0.0005168043915198
23	65	31.5	-0.071036193915642
23	66	32	0.11826321648899
23	67	32.5	0.12624340628274
23	68	33	-0.12746419978328
23	69	33.5	-0.076326911184005
24	5	1.5	2.6955509797744
24	6	2	3.2883222870959
24	7	2.5	4.1941174165164
24	8	3	3.9378955968766
24	9	3.5	4.7485859616822
24	10	4	5.8543376733074
24	11	4.5	6.1775693704071
24	12	5	5.9821959196403
24	13	5.5	7.6331225865915
24	14	6	7.8648074258527
24	15	6.5	7.8578267025772
24	16	7	8.0237890237147
24	17	7.5	5.9440318831241
24	18	8	2.5215996125295
24	19	8.5	1.4953876673367
24	20	9	2.4688200096947
24	21	9.5	2.1390167677352
24	22	10	1.9906499519467
24	23	10.5	2.5174278850781
24	24	11	1.5991862716072
24	25	11.5	1.8900343297916
24	26	12	2.2626189159963
24	27	12.5	2.5903713434874
24	28	13	1.5788369743138
24	29	13.5	2.4546984039898
24	30	14	2.0827493340562
24	31	14.5	1.6656247718062
24	32	15	2.8803224823279
24	33	15.5	1.548624634225
24	34	16	2.0605661097107
24	35	16.5	1.8843400980098
24	36	17	2.1110087781763
24	37	17.5	2.7751801418524
24	38	18	1.3816743553884
24	39	18.5	2.2077323560374
24	40	19	2.2632253942785
24	41	19.5	2.5337005185544
24	42	20	2.2580551344857
24	43	20.5	1.532146301247
24	44	21	2.1779711921462
24	45	21.5	2.1392894682009
24	46	22	1.8888857655703
24	47	22.5	2.0631041083883
24	48	23	2.5695405861684
24	49	23.5	1.7775676241955
24	50	24	2.2508784945035
24	51	24.5	2.1849575905697
24	52	25	2.3574295489482
24	53	25.5	2.1648516205751
24	54	26	1.5624180619725
24	55	26.5	2.3523879488619
24	56	27	0.973
24	57	27.5	0.973
24	58	28	0.973
24	59	28.5	0.973
24	60	29	0.973
24	61	29.5	1.5260109554556
24	62	30	1.7898273276056
24	63	30.5	1.527209427586
24	64	31	1.590731128338
24	65	31.5	1.4390777730465
24	66	32	1.8395603026555
24	67	32.5	1.8626160976145
24	68	33	1.3236669439713
24	69	33.5	1.4290769606018
25	8	3	0
26	8	3	1287.3559671473
26	9	3.5	1287.3811776978
26	10	4	1287.429289688
26	11	4.5	1287.4986014391
26	12	5	1287.5876593265
26	13	5.5	1287.6989236316
26	14	6	1287.8289786264
26	15	6.5	1287.9773356656
26	16	7	1288.1456839783
26	17	7.5	1288.3232427641
26	18	8	1288.50096557
26	19	8.5	1288.6786560022
26	20	9	1288.8562593891
26	21	9.5	1289.0342826184
26	22	10	1289.211768436
26	23	10.5	1289.3894451716
26	24	11	1289.5671715795
26	25	11.5	1289.7453252715
26	26	12	1289.923181164
26	27	12.5	1290.1011073045
26	28	13	1290.2786190732
26	29	13.5	1290.4555619293
26	30	14	1290.7643331495
26	31	14.5	1294.6385489546
26	32	15	1299.583718733
26	33	15.5	1304.0540757567
26	34	16	1307.5000706376
26	35	16.5	1307.8180997712
26	36	17	1305.9971665662
26	37	17.5	1301.3149925426
26	38	18	1296.9520803428
26	39	18.5	1293.3391100906
26	40	19	1292.3512898867
26	41	19.5	1292.5048263583
26	42	20	1292.6580338186
26	43	20.5	1292.8115754686
26	44	21	1292.9645246154
26	45	21.5	1293.1173784909
26	46	22	1293.2710696129
26	47	22.5	1293.4250487536
26	48	23	1293.5782667216
26	49	23.5	1293.7314100085
26	50	24	1293.8850084872
26	51	24.5	1294.0387336586
26	52	25	1294.1922177309
26	53	25.5	1294.345462665
26	54	26	1294.4988617273
26	55	26.5	1294.652153533
26	56	27	1294.8058326959
26	57	27.5	1294.9589505611
26	58	28	1295.1128597823
26	59	28.5	1295.2656915284
26	60	29	1295.4189219684
26	61	29.5	1295.5655449128
26	62	30	1295.6835957059
26	63	30.5	1295.8131581554
26	64	31	1295.9513056867
26	65	31.5	1296.102072429
26	66	32	1296.2526085891
26	67	32.5	1296.4190575763
26	68	33	1296.5998719394
26	69	33.5	1296.7728203677
27	8	3	1828.399858525
27	9	3.5	1827.796331021
27	10	4	1826.6445549326
27	11	4.5	1824.9852675684
27	12	5	1822.8532679407
27	13	5.5	1820.1896581929
27	14	6	1817.0762090785
27	15	6.5	1813.5246185185
27	16	7	1809.4944472387
27	17	7.5	1805.2437820146
27	18	8	1800.9891902301
27	19	8.5	1796.7353734598
27	20	9	1792.4836405031
27	21	9.5	1788.2218567403
27	22	10	1783.9729383336
27	23	10.5	1779.7194494521
27	24	11	1775.4647714393
27	25	11.5	1771.1998644648
27	26	12	1766.9420866584
27	27	12.5	1762.6826271536
27	28	13	1758.4330874877
27	29	13.5	1754.1971673016
27	30	14	1749.9731385587
27	31	14.5	1748.606588454
27	32	15	1749.1446187012
27	33	15.5	1747.585689446
27	34	16	1742.7393989861
27	35	16.5	1736.757306505
27	36	17	1730.5985575225
27	37	17.5	1726.3788204398
27	38	18	1722.3970974721
27	39	18.5	1718.3994427938
27	40	19	1714.2207422815
27	41	19.5	1709.9639546061
27	42	20	1705.7162887445
27	43	20.5	1701.4593574964
27	44	21	1697.2188533554
27	45	21.5	1692.980990611
27	46	22	1688.7199152587
27	47	22.5	1684.4508546162
27	48	23	1680.2028974285
27	49	23.5	1675.9570107684
27	50	24	1671.6985039515
27	51	24.5	1667.4364845827
27	52	25	1663.1811496736
27	53	25.5	1658.9324448556
27	54	26	1654.6794668389
27	55	26.5	1650.4294625074
27	56	27	1646.1687187254
27	57	27.5	1641.923536879
27	58	28	1637.6564147472
27	59	28.5	1633.419165534
27	60	29	1629.1708625611
27	61	29.5	1625.1057519317
27	62	30	1621.8328021476
27	63	30.5	1618.1486762622
27	64	31	1613.9351765551
27	65	31.5	1609.3298048237
27	66	32	1604.2309994008
27	67	32.5	1598.5932111274
27	68	33	1592.4688536683
27	69	33.5	1585.8699043905
28	8	3	0
29	8	3	243.31684103317
29	9	3.5	243.31083854113
29	10	4	243.30041073961
29	11	4.5	243.28623306868
29	12	5	243.26809797797
29	13	5.5	243.24581887119
29	14	6	243.21943441313
29	15	6.5	243.18912463216
29	16	7	243.15511231392
29	17	7.5	243.11762675876
29	18	8	243.0764103363
29	19	8.5	243.03123234748
29	20	9	242.98150322319
29	21	9.5	242.92821757821
29	22	10	242.87446557079
29	23	10.5	242.82072411827
29	24	11	242.76994505816
29	25	11.5	242.71828776458
29	26	12	242.24519395444
29	27	12.5	241.7727419429
29	28	13	241.30020866462
29	29	13.5	240.82753843861
29	30	14	240.35503396613
29	31	14.5	239.88372450473
29	32	15	239.41118017165
29	33	15.5	238.93858476856
29	34	16	238.46611547645
29	35	16.5	237.9938317067
29	36	17	237.52140040521
29	37	17.5	237.04953442723
29	38	18	236.57697512186
29	39	18.5	236.10465902218
29	40	19	235.85095963674
29	41	19.5	235.77946855268
29	42	20	234.82691907417
29	43	20.5	232.79464128288
29	44	21	230.76737144217
29	45	21.5	228.73739257327
29	46	22	226.70871547109
29	47	22.5	224.67840208416
29	48	23	222.64855461218
29	49	23.5	220.61997369316
29	50	24	218.59420234314
29	51	24.5	216.56531129626
29	52	25	214.53600470186
29	53	25.5	212.50834326516
29	54	26	210.48124783428
29	55	26.5	208.45597610867
29	56	27	206.42584202345
29	57	27.5	204.39587861719
29	58	28	202.37141477771
29	59	28.5	200.34130708734
29	60	29	198.31235466874
29	61	29.5	196.28436288005
29	62	30	194.25709672808
29	63	30.5	192.23080447025
29	64	31	190.20218155801
29	65	31.5	188.17849228263
29	66	32	186.15220951068
29	67	32.5	184.12258001091
29	68	33	182.092292352
29	69	33.5	180.2417711966
30	8	3	2497.2687308043
30	9	3.5	2496.5383912213
30	10	4	2495.2696121773
30	11	4.5	2493.5445762835
30	12	5	2491.338030342
30	13	5.5	2488.627270651
30	14	6	2485.4170016814
30	15	6.5	2481.7291279659
30	16	7	2477.5907564536
30	17	7.5	2473.0297867116
30	18	8	2468.0148721896
30	19	8.5	2462.5179430759
30	20	9	2456.4672648963
30	21	9.5	2449.9838551497
30	22	10	2443.4437018
30	23	10.5	2436.9048327105
30	24	11	2430.3750553625
30	25	11.5	2423.8363897018
30	26	12	2417.3128208825
30	27	12.5	2410.798101929
30	28	13	2404.2822623765
30	29	13.5	2397.7645344278
30	30	14	2391.2490920834
30	31	14.5	2384.7501279423
30	32	15	2378.2341359537
30	33	15.5	2371.7174397511
30	34	16	2365.2024825141
30	35	16.5	2358.6900834749
30	36	17	2352.1756500984
30	37	17.5	2345.6690120585
30	38	18	2339.1528136125
30	39	18.5	2332.6399687715
30	40	19	2326.1169161843
30	41	19.5	2319.5921632443
30	42	20	2313.1937514488
30	43	20.5	2306.9700382268
30	44	21	2300.7616615156
30	45	21.5	2294.5449885875
30	46	22	2288.3323022332
30	47	22.5	2282.1146048671
30	48	23	2275.8983343337
30	49	23.5	2269.6859425334
30	50	24	2263.4821548481
30	51	24.5	2257.2688133018
30	52	25	2251.0541991703
30	53	25.5	2244.844623222
30	54	26	2238.6367806289
30	55	26.5	2232.4345230097
30	56	27	2226.217374743
30	57	27.5	2220.0007491689
30	58	28	2213.8009656454
30	59	28.5	2207.5838982118
30	60	29	2201.3703687191
30	61	29.5	2195.15978109
30	62	30	2188.9514156748
30	63	30.5	2182.7460327446
30	64	31	2176.5335123427
30	65	31.5	2170.3361008698
30	66	32	2164.1307469895
30	67	32.5	2157.9151439816
30	68	33	2151.6975254063
30	69	33.5	2145.4503500676
31	8	3	0
32	8	3	1630.0268724975
32	9	3.5	1630.0128098349
32	10	4	1629.9893088539
32	11	4.5	1629.900620958
32	12	5	1629.6836350461
32	13	5.5	1629.4175205276
32	14	6	1629.0991179633
32	15	6.5	1628.7309310555
32	16	7	1628.3157658455
32	17	7.5	1627.8517687232
32	18	8	1627.3386810892
32	19	8.5	1626.7740147263
32	20	9	1626.1587299653
32	21	9.5	1625.4599489005
32	22	10	1624.7014820904
32	23	10.5	1623.988219264
32	24	11	1623.3060374642
32	25	11.5	1622.5819276634
32	26	12	1621.8181503806
32	27	12.5	1621.0160956007
32	28	13	1620.2246650581
32	29	13.5	1619.445666205
32	30	14	1618.6782018133
32	31	14.5	1617.9220770355
32	32	15	1617.1745519161
32	33	15.5	1616.4349630054
32	34	16	1615.4535340754
32	35	16.5	1614.6839972869
32	36	17	1613.9199589278
32	37	17.5	1613.1619018047
32	38	18	1612.4113051367
32	39	18.5	1611.6658109911
32	40	19	1610.9229697604
32	41	19.5	1610.2290218666
32	42	20	1609.610613035
32	43	20.5	1608.9953800164
32	44	21	1608.3826599745
32	45	21.5	1607.770566457
32	46	22	1607.1068265579
32	47	22.5	1606.434137985
32	48	23	1605.7624385222
32	49	23.5	1605.0927552354
32	50	24	1604.4221947428
32	51	24.5	1603.7528830395
32	52	25	1603.0851943846
32	53	25.5	1602.4188482742
32	54	26	1601.7520372319
32	55	26.5	1601.0872222349
32	56	27	1600.4451237515
32	57	27.5	1599.882165452
32	58	28	1599.3421328989
32	59	28.5	1598.8403902672
32	60	29	1598.3953455879
32	61	29.5	1598.285300359
32	62	30	1599.3595995302
32	63	30.5	1603.2267859939
32	64	31	1607.9007776781
32	65	31.5	1612.5733999733
32	66	32	1617.1751606039
32	67	32.5	1621.7578182209
32	68	33	1626.2949081828
32	69	33.5	1630.8132641475
33	8	3	360.18661169056
33	9	3.5	360.90204965509
33	10	4	362.09766206611
33	11	4.5	363.75889845565
33	12	5	365.88218231406
33	13	5.5	368.486206959
33	14	6	371.60188861657
33	15	6.5	375.20472767763
33	16	7	379.26726603229
33	17	7.5	383.80764191318
33	18	8	388.82838580664
33	19	8.5	394.35384579748
33	20	9	400.37462470867
33	21	9.5	406.8904701164
33	22	10	413.86836476903
33	23	10.5	421.34583248105
33	24	11	429.30166697782
33	25	11.5	437.74647997785
33	26	12	446.47102705948
33	27	12.5	455.19220507517
33	28	13	463.79785997607
33	29	13.5	472.26833835337
33	30	14	480.61339625809
33	31	14.5	488.83515236806
33	32	15	496.96339971572
33	33	15.5	505.00535234809
33	34	16	512.90072382614
33	35	16.5	520.77854402643
33	36	17	528.60007629357
33	37	17.5	536.36037808377
33	38	18	544.04430649802
33	39	18.5	551.67599991243
33	40	19	559.2805351885
33	41	19.5	566.84485022165
33	42	20	574.40795716085
33	43	20.5	581.93222407904
33	44	21	589.41598117165
33	45	21.5	596.87299144454
33	46	22	604.30411078501
33	47	22.5	611.70271579362
33	48	23	619.09044201858
33	49	23.5	626.45599321276
33	50	24	633.83119240496
33	51	24.5	641.19265671447
33	52	25	648.5362698324
33	53	25.5	655.86511689331
33	54	26	663.19907753542
33	55	26.5	670.51108455565
33	56	27	677.67021687608
33	57	27.5	684.06055432837
33	58	28	690.20092749782
33	59	28.5	695.91562850121
33	60	29	700.98455650359
33	61	29.5	705.92293338757
33	62	30	710.61734058149
33	63	30.5	713.17229517177
33	64	31	713.65254956763
33	65	31.5	713.84018839709
33	66	32	714.0249816291
33	67	32.5	714.20900774095
33	68	33	714.39120398927
33	69	33.5	714.57264793478
34	9	3.5	1.6455819391718
34	10	4	2.6761059106281
34	11	4.5	3.7021800504066
34	12	5	4.7235636225622
34	13	5.5	5.6950464775017
34	14	6	6.5687322150124
34	15	6.5	7.5051418749732
34	16	7	8.501276462127
34	17	7.5	8.563147191881
34	18	8	8.4745540270054
34	19	8.5	8.5299582268608
34	20	9	8.5066300805503
34	21	9.5	8.5220204419068
34	22	10	8.4774239525277
34	23	10.5	8.5085246659125
34	24	11	8.5119088741097
34	25	11.5	8.5760193071499
34	26	12	8.5659617387069
34	27	12.5	8.5690494926165
34	28	13	8.4932651135799
34	29	13.5	8.4517204434456
34	30	14	8.4579460921775
34	31	14.5	9.3684725043535
34	32	15	10.383109647111
34	33	15.5	11.352665298729
34	34	16	12.277035598434
34	35	16.5	13.223256035653
34	36	17	12.907245667691
34	37	17.5	12.404726280528
34	38	18	11.366983234093
34	39	18.5	9.9693961535509
34	40	19	8.4579681814796
34	41	19.5	8.5381719684422
34	42	20	8.4497851949542
34	43	20.5	8.4676884585557
34	44	21	8.4996729728494
34	45	21.5	8.5259260189075
34	46	22	8.5504766533625
34	47	22.5	8.5759732872837
34	48	23	8.4715267891771
34	49	23.5	8.4945117038776
34	50	24	8.4578823217734
34	51	24.5	8.5291908307451
34	52	25	8.5146841880594
34	53	25.5	8.5080228890603
34	54	26	8.4925339438518
34	55	26.5	8.4538785572195
34	56	27	8.5193505737729
34	57	27.5	8.4920543373896
34	58	28	8.4803188331247
34	59	28.5	8.4703847052374
34	60	29	8.5241874921819
34	61	29.5	7.4717301256729
34	62	30	6.6445157428503
34	63	30.5	7.7841091361687
34	64	31	8.7617685549472
34	65	31.5	9.602537798404
34	66	32	10.595154076845
34	67	32.5	11.73997529713
34	68	33	12.599629533889
34	69	33.5	13.580687570574
35	9	3.5	1.9477288762198
35	10	4	2.8891950801346
35	11	4.5	3.8350202470278
35	12	5	4.8188176849117
35	13	5.5	5.8688880039245
35	14	6	6.7883493958489
35	15	6.5	7.7277704356057
35	16	7	8.651129013822
35	17	7.5	9.4353116756287
35	18	8	10.407904546608
35	19	8.5	11.446123800828
35	20	9	12.482664868606
35	21	9.5	13.086862323066
35	22	10	13.039519917153
35	23	10.5	13.131635858841
35	24	11	13.064975396968
35	25	11.5	13.078943986078
35	26	12	13.079962054673
35	27	12.5	13.003435296433
35	28	13	13.10296592261
35	29	13.5	13.05168301126
35	30	14	13.098583794851
35	31	14.5	13.003931868403
35	32	15	13.069517235195
35	33	15.5	13.124803860491
35	34	16	13.044303932454
35	35	16.5	13.051399854424
35	36	17	13.014083629994
35	37	17.5	13.050186690272
35	38	18	13.102078719156
35	39	18.5	13.080967958384
35	40	19	13.020409266467
35	41	19.5	13.081717010437
35	42	20	13.095506578438
35	43	20.5	13.094307308894
35	44	21	13.007555914412
35	45	21.5	13.089539061094
35	46	22	13.096774296363
35	47	22.5	13.121594429378
35	48	23	13.07755049557
35	49	23.5	13.060806489145
35	50	24	13.075251773906
35	51	24.5	13.116356237897
35	52	25	13.00739043529
35	53	25.5	13.041211174671
35	54	26	13.081718427372
35	55	26.5	13.084109073659
35	56	27	13.121426649707
35	57	27.5	13.126897388895
35	58	28	13.088712531387
35	59	28.5	13.089159397274
35	60	29	13.079337785743
35	61	29.5	13.05209184818
35	62	30	13.0121643712
35	63	30.5	13.089608286666
35	64	31	13.052319194819
35	65	31.5	13.055035938102
35	66	32	13.062520447954
35	67	32.5	13.120194946717
35	68	33	13.089832526781
35	69	33.5	13.033959922705
36	9	3.5	1.8470616036361
36	10	4	2.7475277348422
36	11	4.5	3.7304908578517
36	12	5	4.5837624091632
36	13	5.5	5.680428551964
36	14	6	6.6237142801867
36	15	6.5	7.5670377819753
36	16	7	8.5811451430642
36	17	7.5	9.5088622136787
36	18	8	10.46685532128
36	19	8.5	11.592977667153
36	20	9	12.492636091223
36	21	9.5	13.493120780096
36	22	10	14.413565432495
36	23	10.5	15.407085067988
36	24	11	16.287658184967
36	25	11.5	17.346536351205
36	26	12	17.513065206474
36	27	12.5	17.511980717779
36	28	13	17.182788406995
36	29	13.5	16.957963417603
36	30	14	16.606094387723
36	31	14.5	16.433202451095
36	32	15	16.227279114545
36	33	15.5	16.037122096803
36	34	16	15.920791113975
36	35	16.5	15.698486121588
36	36	17	15.625463697225
36	37	17.5	15.564405272747
36	38	18	15.419532766776
36	39	18.5	15.346070970248
36	40	19	15.290777829331
36	41	19.5	15.189528289696
36	42	20	15.124171241207
36	43	20.5	15.13455832953
36	44	21	14.977562867784
36	45	21.5	14.913321905866
36	46	22	14.862673027156
36	47	22.5	14.835174846784
36	48	23	14.815144225757
36	49	23.5	14.819078764644
36	50	24	14.836933996236
36	51	24.5	14.717495247866
36	52	25	14.684654532631
36	53	25.5	14.773808841943
36	54	26	14.688755535156
36	55	26.5	14.636552411323
36	56	27	13.77269679968
36	57	27.5	12.457166556897
36	58	28	12.292425741494
36	59	28.5	10.839909966448
36	60	29	10.050282209671
36	61	29.5	9.8843253061733
36	62	30	9.6009976768988
36	63	30.5	9.5807252076572
36	64	31	9.317523803053
36	65	31.5	9.3529333795095
36	66	32	9.1063951833978
36	67	32.5	9.2048060300288
36	68	33	9.0499152374072
36	69	33.5	9.0482213513256
37	10	4	0
37	75	33.500013120617	1
37	109	33.500245120617	0
38	10	4	2632.5300726173
38	11	4.5	2632.4881376581
38	12	5	2632.3859219713
38	13	5.5	2632.235792439
38	14	6	2632.0302030591
38	15	6.5	2631.7688974058
38	16	7	2631.4546243529
38	17	7.5	2631.1115964432
38	18	8	2630.7453728558
38	19	8.5	2630.3614161173
38	20	9	2629.955724243
38	21	9.5	2629.5272776113
38	22	10	2629.0758549628
38	23	10.5	2628.1510422635
38	24	11	2627.1039015026
38	25	11.5	2626.0050836731
38	26	12	2624.8576548725
38	27	12.5	2623.6598509504
38	28	13	2622.4087805812
38	29	13.5	2621.101015667
38	30	14	2619.739997228
38	31	14.5	2618.3257885587
38	32	15	2616.8593843103
38	33	15.5	2615.3422464152
38	34	16	2613.7699399485
38	35	16.5	2612.1433020589
38	36	17	2610.4653946944
38	37	17.5	2608.7370490078
38	38	18	2606.9592163771
38	39	18.5	2605.128073582
38	40	19	2603.2470444837
38	41	19.5	2601.3144743402
38	42	20	2599.322285513
38	43	20.5	2597.2832067561
38	44	21	2595.1884018887
38	45	21.5	2593.0356649533
38	46	22	2590.8281155899
38	47	22.5	2588.568907061
38	48	23	2586.2579921309
38	49	23.5	2583.8869755465
38	50	24	2581.4643357184
38	51	24.5	2578.9871388319
38	52	25	2576.4710343836
38	53	25.5	2573.9464326078
38	54	26	2571.4182418206
38	55	26.5	2568.8898705194
38	56	27	2566.3496419202
38	57	27.5	2563.8078517478
38	58	28	2561.2604095628
38	59	28.5	2558.7075158478
38	60	29	2556.1512863648
38	61	29.5	2553.5948977096
38	62	30	2551.0338219336
38	63	30.5	2548.4700599945
38	64	31	2545.9015407185
38	65	31.5	2543.3355926131
38	66	32	2540.7612734187
38	67	32.5	2538.1868665202
38	68	33	2535.6104791119
38	69	33.5	2533.0334055679
39	10	4	3029.4819660382
39	11	4.5	3029.1090627452
39	12	5	3028.200117873
39	13	5.5	3026.8651029365
39	14	6	3025.0369157121
39	15	6.5	3022.7132759551
39	16	7	3019.9186278032
39	17	7.5	3016.8682793742
39	18	8	3013.6116652247
39	19	8.5	3010.1973604374
39	20	9	3006.589777682
39	21	9.5	3002.7798500555
39	22	10	2998.7656100243
39	23	10.5	2994.6089528939
39	24	11	2990.2555501293
39	25	11.5	2985.6873041438
39	26	12	2980.9169619903
39	27	12.5	2975.9371893555
39	28	13	2970.7359657884
39	29	13.5	2965.2990392493
39	30	14	2959.6407155013
39	31	14.5	2953.7612576857
39	32	15	2947.6648009848
39	33	15.5	2941.3574232627
39	34	16	2934.8206866803
39	35	16.5	2928.0580716142
39	36	17	2921.0823078658
39	37	17.5	2913.8968508849
39	38	18	2906.505655949
39	39	18.5	2898.8928283295
39	40	19	2891.0726024508
39	41	19.5	2883.0380988587
39	42	20	2874.7557354253
39	43	20.5	2866.2784309126
39	44	21	2857.5694496166
39	45	21.5	2848.619620448
39	46	22	2839.4419130553
39	47	22.5	2830.0494368747
39	48	23	2820.4419955239
39	49	23.5	2810.5846864227
39	50	24	2800.5127578732
39	51	24.5	2790.2140127784
39	52	25	2779.7535126526
39	53	25.5	2769.2576855775
39	54	26	2758.746937478
39	55	26.5	2748.2354389066
39	56	27	2737.6746445801
39	57	27.5	2727.1073581409
39	58	28	2716.5165739162
39	59	28.5	2705.9031253979
39	60	29	2695.2758086957
39	61	29.5	2684.6478302479
39	62	30	2674.0003654752
39	63	30.5	2663.3417331977
39	64	31	2652.6627973672
39	65	31.5	2641.9945071675
39	66	32	2631.2914129877
39	67	32.5	2620.5879541663
39	68	33	2609.8762610964
39	69	33.5	2599.1617153203
40	10	4	2.0610479429126
40	11	4.5	2.052148279557
40	12	5	2.0427671443112
40	13	5.5	1.9429657098791
40	14	6	1.7473714750214
40	15	6.5	1.8728193199215
40	16	7	1.9922691743076
40	17	7.5	0.12374145950812
40	18	8	-0.17718632975128
40	19	8.5	0.11080839971081
40	20	9	-0.046656292621044
40	21	9.5	0.030780722713097
40	22	10	-0.089192978758366
40	23	10.5	0.062201426769608
40	24	11	0.006768416394479
40	25	11.5	0.12822086608037
40	26	12	-0.020115136886016
40	27	12.5	0.0061755078192824
40	28	13	-0.15156875807326
40	29	13.5	-0.083089340268636
40	30	14	0.012451297463851
40	31	14.5	1.8210528243519
40	32	15	2.0292742855148
40	33	15.5	1.9391113032354
40	34	16	1.8487405994115
40	35	16.5	1.8924408744369
40	36	17	-0.63202073592404
40	37	17.5	-1.0050387743264
40	38	18	-2.0754860928698
40	39	18.5	-2.7951741610836
40	40	19	-3.0228559441427
40	41	19.5	0.16040757392533
40	42	20	-0.17677354697604
40	43	20.5	0.035806527202947
40	44	21	0.063969028587454
40	45	21.5	0.052506092116236
40	46	22	0.049101268909872
40	47	22.5	0.050993267842568
40	48	23	-0.2088929962134
40	49	23.5	0.045969829400999
40	50	24	-0.073258764208294
40	51	24.5	0.14261701794341
40	52	25	-0.029013285371473
40	53	25.5	-0.013322597998194
40	54	26	-0.030977890416981
40	55	26.5	-0.077310773264617
40	56	27	0.13094403310679
40	57	27.5	-0.054592472766526
40	58	28	-0.023471008529889
40	59	28.5	-0.01986825577449
40	60	29	0.10760557388887
40	61	29.5	-2.1049147330178
40	62	30	-1.6544287656452
40	63	30.5	2.2791867866367
40	64	31	1.955318837557
40	65	31.5	1.6815384869138
40	66	32	1.9852325568814
40	67	32.5	2.2896424405696
40	68	33	1.719308473519
40	69	33.5	1.96211607337
41	10	4	2.5701211970083
41	11	4.5	3.1242595125007
41	12	5	3.6730436192377
41	13	5.5	4.0685248856834
41	14	6	4.2192602062213
41	15	6.5	4.8985422986057
41	16	7	5.6586355989093
41	17	7.5	1.8364597566726
41	18	8	0.973
41	19	8.5	1.8066103744545
41	20	9	1.4815749080921
41	21	9.5	1.6414941685548
41	22	10	1.3930057343772
41	23	10.5	1.7049016833499
41	24	11	1.5914699774489
41	25	11.5	1.8469846828975
41	26	12	1.5397595859951
41	27	12.5	1.5942502693938
41	28	13	1.2660699536207
41	29	13.5	1.4042402087981
41	30	14	1.5992858968769
41	31	14.5	5.7494705596411
41	32	15	6.7922021736014
41	33	15.5	7.0982118459269
41	34	16	7.3431780020755
41	35	16.5	7.9923227946813
41	36	17	0.973
41	37	17.5	0.973
41	38	18	0.973
41	39	18.5	0.973
41	40	19	0.973
41	41	19.5	1.9094519307412
41	42	20	0.973
41	43	20.5	1.647639791885
41	44	21	1.7077853694732
41	45	21.5	1.6864303523844
41	46	22	1.6814051475766
41	47	22.5	1.6873653643102
41	48	23	0.973
41	49	23.5	1.6705059945746
41	50	24	1.4245742916483
41	51	24.5	1.8719211170772
41	52	25	1.5182386865481
41	53	25.5	1.5500028973514
41	54	26	1.5128601852514
41	55	26.5	1.4161169987731
41	56	27	1.8469435007801
41	57	27.5	1.4645017915367
41	58	28	1.5274605593409
41	59	28.5	1.5341942943343
41	60	29	1.7994819438414
41	61	29.5	0.973
41	62	30	0.973
41	63	30.5	5.8047633407595
41	64	31	5.7236287085154
41	65	31.5	5.5464580670892
41	66	32	6.8001407294939
41	67	32.5	8.3039766748503
41	68	33	7.1232809306228
41	69	33.5	8.4184182159909
42	10	4	1.8829324078296
42	11	4.5	1.8916503337864
42	12	5	1.9675948757678
42	13	5.5	2.1001406380255
42	14	6	1.8389227838488
42	15	6.5	1.8788420795137
42	16	7	1.8467171564326
42	17	7.5	1.5683653236134
42	18	8	1.9451857419591
42	19	8.5	2.0764385084389
42	20	9	2.0730821355572
42	21	9.5	1.208394908919
42	22	10	-0.094684811825864
42	23	10.5	0.18423188337591
42	24	11	-0.13332092374563
42	25	11.5	0.027937178220597
42	26	12	0.002036137189716
42	27	12.5	-0.15305351648014
42	28	13	0.19906125235371
42	29	13.5	-0.10256582269911
42	30	14	0.093801567181945
42	31	14.5	-0.18930385289714
42	32	15	0.13117073358502
42	33	15.5	0.11057325059083
42	34	16	-0.16099985607434
42	35	16.5	0.014191843941809
42	36	17	-0.074632448861376
42	37	17.5	0.072206120556221
42	38	18	0.10378405776806
42	39	18.5	-0.042221521544271
42	40	19	-0.12111738383304
42	41	19.5	0.12261548793875
42	42	20	0.027579136001879
42	43	20.5	-0.0023985390877357
42	44	21	-0.1735027889628
42	45	21.5	0.1639662933629
42	46	22	0.014470470538363
42	47	22.5	0.049640266029165
42	48	23	-0.088087867614814
42	49	23.5	-0.033488012850285
42	50	24	0.028890569522044
42	51	24.5	0.082208927981558
42	52	25	-0.21793160521425
42	53	25.5	0.067641478762962
42	54	26	0.081014505401253
42	55	26.5	0.0047812925744815
42	56	27	0.074635152094995
42	57	27.5	0.010941478377209
42	58	28	-0.076369715016334
42	59	28.5	0.00089373177382868
42	60	29	-0.019643223062157
42	61	29.5	-0.054491875125095
42	62	30	-0.079854953959583
42	63	30.5	0.15488783093169
42	64	31	-0.074578183693809
42	65	31.5	0.0054334865650141
42	66	32	0.014969019703567
42	67	32.5	0.11534899752587
42	68	33	-0.060724839870819
42	69	33.5	-0.11174520815257
43	10	4	2.56268104044
43	11	4.5	3.0485505086538
43	12	5	3.6378336742614
43	13	5.5	4.3822324153662
43	14	6	4.4748311452333
43	15	6.5	5.0245613350523
43	16	7	5.437404237887
43	17	7.5	5.2090775838437
43	18	8	6.5953472256838
43	19	8.5	7.5285808519187
43	20	9	8.1283407174621
43	21	9.5	5.7595597442964
43	22	10	1.6462901092424
43	23	10.5	2.5356975694928
43	24	11	1.5264871058784
43	25	11.5	2.0356632817258
43	26	12	1.9541204180907
43	27	12.5	1.460759675317
43	28	13	2.5785028605898
43	29	13.5	1.6223836123883
43	30	14	2.245593377134
43	31	14.5	1.3471819300201
43	32	15	2.3598587657631
43	33	15.5	2.3017503456577
43	34	16	1.4381641393989
43	35	16.5	1.9896116741574
43	36	17	1.7073393543577
43	37	17.5	2.1719521479322
43	38	18	2.2775279261091
43	39	18.5	1.8146942773026
43	40	19	1.5619618386023
43	41	19.5	2.3344389304842
43	42	20	2.0362299592609
43	43	20.5	1.9415057527484
43	44	21	1.3968948097777
43	45	21.5	2.4658629856382
43	46	22	1.9949846192286
43	47	22.5	2.1086681810061
43	48	23	1.6698456855277
43	49	23.5	1.8404622947193
43	50	24	2.0382895895897
43	51	24.5	2.2110538805261
43	52	25	1.2576113738745
43	53	25.5	2.1565932829816
43	54	26	2.203283934003
43	55	26.5	1.9631754114242
43	56	27	2.1876904983408
43	57	27.5	1.9868137782974
43	58	28	1.7076401779275
43	59	28.5	1.9514012974429
43	60	29	1.88572444548
43	61	29.5	1.7736317349825
43	62	30	1.6908137989002
43	63	30.5	2.4372334700645
43	64	31	1.7104667787427
43	65	31.5	1.9624151106607
43	66	32	1.9931581877195
43	67	32.5	2.3162859958828
43	68	33	1.757080871733
43	69	33.5	1.5922970366434
44	10	4	1.8009322624122
44	11	4.5	1.9659262460191
44	12	5	1.706543102623
44	13	5.5	2.1933322856016
44	14	6	1.8865714564454
44	15	6.5	1.8866470035771
44	16	7	2.0282147221779
44	17	7.5	1.8554341412289
44	18	8	1.9159862152021
44	19	8.5	2.2522446917463
44	20	9	1.7993168481393
44	21	9.5	2.0009693777468
44	22	10	1.8408893047972
44	23	10.5	1.9870392709877
44	24	11	1.7611462339573
44	25	11.5	2.1177563324757
44	26	12	0.33305771053762
44	27	12.5	-0.0021689773899567
44	28	13	-0.65838462156828
44	29	13.5	-0.44964997878373
44	30	14	-0.70373805975962
44	31	14.5	-0.34578387325568
44	32	15	-0.41184667310041
44	33	15.5	-0.38031403548288
44	34	16	-0.23266196565675
44	35	16.5	-0.44460998477328
44	36	17	-0.1460448487269
44	37	17.5	-0.12211684895522
44	38	18	-0.28974501194172
44	39	18.5	-0.14692359305728
44	40	19	-0.11058628183307
44	41	19.5	-0.2024990792704
44	42	20	-0.13071409697872
44	43	20.5	0.020774176645883
44	44	21	-0.31399092349216
44	45	21.5	-0.12848192383475
44	46	22	-0.10129775742146
44	47	22.5	-0.054996360743775
44	48	23	-0.04006124205327
44	49	23.5	0.0078690777737371
44	50	24	0.035710463183747
44	51	24.5	-0.23887749673873
44	52	25	-0.065681430471574
44	53	25.5	0.17830861862488
44	54	26	-0.17010661357342
44	55	26.5	-0.10440624766638
44	56	27	-1.7277112232868
44	57	27.5	-2.6310604855664
44	58	28	-0.32948163080542
44	59	28.5	-2.9050315500906
44	60	29	-1.5792555135552
44	61	29.5	-0.33191380699515
44	62	30	-0.56665525854911
44	63	30.5	-0.040544938483048
44	64	31	-0.5264028092084
44	65	31.5	0.070819152912819
44	66	32	-0.49307639222326
44	67	32.5	0.19682169326185
44	68	33	-0.30978158524318
44	69	33.5	-0.0033877721631264
45	10	4	2.4369515859504
45	11	4.5	3.0622174276593
45	12	5	3.2252131420872
45	13	5.5	4.4035914037439
45	14	6	4.4679364272107
45	15	6.5	4.9556559860641
45	16	7	5.7767885446583
45	17	7.5	5.9001120107668
45	18	8	6.5539501555345
45	19	8.5	8.1057409534529
45	20	9	7.3100023302445
45	21	9.5	8.4946840330288
45	22	10	8.4765731602644
45	23	10.5	9.5691861496236
45	24	11	9.2079505555518
45	25	11.5	11.28229159117
45	26	12	3.8567526360858
45	27	12.5	2.4417346219909
45	28	13	0.973
45	29	13.5	0.973
45	30	14	0.973
45	31	14.5	0.94325256227711
45	32	15	0.973
45	33	15.5	0.973
45	34	16	1.3581078231167
45	35	16.5	0.973
45	36	17	1.6662347503722
45	37	17.5	1.7510774452739
45	38	18	1.1157921706789
45	39	18.5	1.6407717222206
45	40	19	1.7703722531598
45	41	19.5	1.4252061125271
45	42	20	1.6827326880152
45	43	20.5	2.2361081160914
45	44	21	1.0095200304275
45	45	21.5	1.6740454221228
45	46	22	1.7674302358519
45	47	22.5	1.930635050589
45	48	23	1.982039275837
45	49	23.5	2.1536087333845
45	50	24	2.2551443937949
45	51	24.5	1.267186083683
45	52	25	1.8784666481477
45	53	25.5	2.7554402409261
45	54	26	1.5091806025924
45	55	26.5	1.7374440990468
45	56	27	0.973
45	57	27.5	0.973
45	58	28	0.973
45	59	28.5	0.973
45	60	29	0.973
45	61	29.5	0.973
45	62	30	0.973
45	63	30.5	1.5597973674548
45	64	31	0.973
45	65	31.5	1.7963975329587
45	66	32	0.973
45	67	32.5	2.062707989066
45	68	33	0.973
45	69	33.5	1.6075312395683
46	11	4.5	1.2490873197984
46	12	5	2.1583012333853
46	13	5.5	3.0305552340075
46	14	6	4.0782804343207
46	15	6.5	5.061338587055
46	16	7	5.8264097761962
46	17	7.5	6.3295112952031
46	18	8	6.644240191245
46	19	8.5	7.0256362610178
46	20	9	7.3972216517543
46	21	9.5	7.8395769053164
46	22	10	8.3136506046053
46	23	10.5	8.7362943932914
46	24	11	9.1422891080831
46	25	11.5	9.5690964914484
46	26	12	9.9143875076323
46	27	12.5	10.449657148174
46	28	13	10.87322891324
46	29	13.5	11.378618702436
46	30	14	11.85906004901
46	31	14.5	12.321130977387
46	32	15	12.754812807809
46	33	15.5	13.179232378275
46	34	16	13.655268713593
46	35	16.5	14.123374671103
46	36	17	14.460702579245
46	37	17.5	14.957056119038
46	38	18	15.403019185214
46	39	18.5	15.818405659849
46	40	19	16.271002789186
46	41	19.5	16.705111618602
46	42	20	17.165571525293
46	43	20.5	17.642350941742
46	44	21	18.077498150148
46	45	21.5	18.625611699666
46	46	22	19.044238582662
46	47	22.5	19.504708131999
46	48	23	20.0027803048
46	49	23.5	20.465141946891
46	50	24	20.96127108286
46	51	24.5	21.408932631093
46	52	25	21.529483481698
46	53	25.5	21.573045401661
46	54	26	21.559483412443
46	55	26.5	21.603923922411
46	56	27	21.77728933679
46	57	27.5	21.682869820381
46	58	28	21.752039999331
46	59	28.5	21.845955938886
46	60	29	21.880173569564
46	61	29.5	21.870315483906
46	62	30	21.938763921606
46	63	30.5	21.921077783657
46	64	31	22.02222416958
46	65	31.5	21.947684298057
46	66	32	21.958455651442
46	67	32.5	21.993568915886
46	68	33	22.01887547658
46	69	33.5	22.080555666115
47	12	5	1.8184278271739
47	13	5.5	1.7445080012443
47	14	6	2.0954504006263
47	15	6.5	1.9661163054686
47	16	7	1.5301423782824
47	17	7.5	1.0062030380139
47	18	8	0.62945779208388
47	19	8.5	0.76279213954562
47	20	9	0.74317078147298
47	21	9.5	0.88471050712417
47	22	10	0.94814739857782
47	23	10.5	0.84528757737204
47	24	11	0.81198942958352
47	25	11.5	0.85361476673056
47	26	12	0.69058203236777
47	27	12.5	1.070539281084
47	28	13	0.84714353013178
47	29	13.5	1.0107795783923
47	30	14	0.96088269314644
47	31	14.5	0.92414185675458
47	32	15	0.86736366084528
47	33	15.5	0.84883914093156
47	34	16	0.95207267063648
47	35	16.5	0.93621191501953
47	36	17	0.67465581628315
47	37	17.5	0.99270707958718
47	38	18	0.89192613235122
47	39	18.5	0.83077294927017
47	40	19	0.90519425867326
47	41	19.5	0.86821765883213
47	42	20	0.92091981338265
47	43	20.5	0.95355883289749
47	44	21	0.87029441681247
47	45	21.5	1.0962270990358
47	46	22	0.83725376599164
47	47	22.5	0.9209390986745
47	48	23	0.99614434560251
47	49	23.5	0.92472328418067
47	50	24	0.99225827193796
47	51	24.5	0.89532309646686
47	52	25	0.24110170121004
47	53	25.5	0.087123839924942
47	54	26	-0.02712397843537
47	55	26.5	0.088881019936601
47	56	27	0.34673082875859
47	57	27.5	-0.18883903281835
47	58	28	0.13834035789905
47	59	28.5	0.18783187911013
47	60	29	0.068435261355447
47	61	29.5	-0.019716171315167
47	62	30	0.13689687539999
47	63	30.5	-0.035372275898844
47	64	31	0.20229277184651
47	65	31.5	-0.14907974304653
47	66	32	0.021542706771321
47	67	32.5	0.070226528888199
47	68	33	0.050613121387556
47	69	33.5	0.12336037906945
48	12	5	2.160901543328
48	13	5.5	2.53289071768
48	14	6	3.3725485269516
48	15	6.5	3.7643710054972
48	16	7	3.5579095728848
48	17	7.5	2.973635232856
48	18	8	2.465541135359
48	19	8.5	2.7724951859827
48	20	9	2.8291071213136
48	21	9.5	3.2042076800659
48	22	10	3.4638310458692
48	23	10.5	3.372743270609
48	24	11	3.41066266085
48	25	11.5	3.6211229885596
48	26	12	3.3283507400832
48	27	12.5	4.4155119303036
48	28	13	3.9731742852288
48	29	13.5	4.5668066766723
48	30	14	4.5823878770898
48	31	14.5	4.621303629221
48	32	15	4.5831779172847
48	33	15.5	4.6533120197531
48	34	16	5.1371444937742
48	35	16.5	5.2381757005019
48	36	17	4.4381245760095
48	37	17.5	5.7189990638493
48	38	18	5.5015758144686
48	39	18.5	5.4058282312777
48	40	19	5.8424002049929
48	41	19.5	5.8418861701715
48	42	20	6.2150709156507
48	43	20.5	6.5226880954585
48	44	21	6.3193925934665
48	45	21.5	7.5261172527339
48	46	22	6.5094684020811
48	47	22.5	7.0653794833684
48	48	23	7.61635663025
48	49	23.5	7.449868122588
48	50	24	7.984525610649
48	51	24.5	7.6687126500484
48	52	25	4.321442057179
48	53	25.5	3.5311349736103
48	54	26	2.9348350097898
48	55	26.5	3.546410107316
48	56	27	4.9343717179876
48	57	27.5	2.1109123195311
48	58	28	3.8352958694959
48	59	28.5	4.115892439846
48	60	29	3.494031927552
48	61	29.5	3.0274626196524
48	62	30	3.8675922028506
48	63	30.5	2.9537038573701
48	64	31	4.2326262017716
48	65	31.5	2.3568647695994
48	66	32	3.26136795773
48	67	32.5	3.5259899156673
48	68	33	3.4269558939878
48	69	33.5	3.8261128349487
49	13	5.5	0
50	13	5.5	1287.353903211
50	14	6	1287.3744657595
50	15	6.5	1287.4182331454
50	16	7	1287.4837737543
50	17	7.5	1287.5699269202
50	18	8	1287.6757841677
50	19	8.5	1287.8042591031
50	20	9	1287.953924522
50	21	9.5	1288.1235697753
50	22	10	1288.2990507344
50	23	10.5	1288.4742547958
50	24	11	1288.6489386521
50	25	11.5	1288.8241899954
50	26	12	1288.9993491034
50	27	12.5	1289.174537373
50	28	13	1289.3496786074
50	29	13.5	1289.5255291393
50	30	14	1289.700620954
50	31	14.5	1289.8753692405
50	32	15	1290.0504941967
50	33	15.5	1290.2256245775
50	34	16	1290.4009797819
50	35	16.5	1290.5763011312
50	36	17	1293.1987735523
50	37	17.5	1298.1232854408
50	38	18	1303.1898845682
50	39	18.5	1306.6205972465
50	40	19	1308.1265242696
50	41	19.5	1306.9055013654
50	42	20	1302.9654647168
50	43	20.5	1298.6758942244
50	44	21	1294.707432842
50	45	21.5	1292.2997620697
50	46	22	1292.4403276253
50	47	22.5	1292.5918108014
50	48	23	1292.7431837379
50	49	23.5	1292.8944095625
50	50	24	1293.0458316155
50	51	24.5	1293.1969103795
50	52	25	1293.3479164995
50	53	25.5	1293.4989253776
50	54	26	1293.6499578129
50	55	26.5	1293.8004700819
50	56	27	1293.9527635061
50	57	27.5	1294.1044660929
50	58	28	1294.2561805513
50	59	28.5	1294.4075341065
50	60	29	1294.558774975
50	61	29.5	1294.7102350293
50	62	30	1294.8615575641
50	63	30.5	1295.012610445
50	64	31	1295.1636575145
50	65	31.5	1295.3150438074
50	66	32	1295.4659859414
50	67	32.5	1295.6031535402
50	68	33	1295.7263301875
50	69	33.5	1295.8621166577
51	13	5.5	1828.4492680896
51	14	6	1827.957011343
51	15	6.5	1826.9092428274
51	16	7	1825.3402346494
51	17	7.5	1823.2777725467
[...]
108	39	18.5	8.1128553725365
108	40	19	8.1032267899258
108	41	19.5	10.212700083346
108	42	20	9.9691884095645
108	43	20.5	9.2173221495527
108	44	21	10.830332144406
108	45	21.5	10.952646042363
108	46	22	11.942739910851
108	47	22.5	12.561600568215
108	48	23	12.540653227303
108	49	23.5	8.9012879122182
108	50	24	4.0457153131087
108	51	24.5	3.8099123184226
108	52	25	5.5782801752561
108	53	25.5	2.7983269590843
108	54	26	0.80163219428632
108	55	26.5	3.0721897131509
108	56	27	3.804110349898
108	57	27.5	1.6357208836166
108	58	28	4.7031440737466
108	59	28.5	2.9969552344799
108	60	29	2.9957982498992
108	61	29.5	1.1145079033839
108	62	30	4.1847078975769
108	63	30.5	3.0720939815974
108	64	31	4.2746689597619
108	65	31.5	3.0427053686312
108	66	32	2.0557041982418
108	67	32.5	3.9141411958126
108	68	33	2.1894369942329
108	69	33.5	3.2045374915835
109	29	13.5	0
110	29	13.5	1287.3539035277
110	30	14	1287.3738480672
110	31	14.5	1287.4171303015
110	32	15	1287.4801363278
110	33	15.5	1287.5637776721
110	34	16	1287.6694834578
110	35	16.5	1287.7956282678
110	36	17	1287.9354276785
110	37	17.5	1288.0722246637
110	38	18	1288.2071796795
110	39	18.5	1288.3397976939
110	40	19	1288.4706525799
110	41	19.5	1288.6005973855
110	42	20	1288.7295369699
110	43	20.5	1288.8571441416
110	44	21	1288.9839721323
110	45	21.5	1289.1110132585
110	46	22	1289.2372232727
110	47	22.5	1289.3626112852
110	48	23	1289.4880150057
110	49	23.5	1289.6124114867
110	50	24	1289.7376844956
110	51	24.5	1289.8626529912
110	52	25	1289.9875797117
110	53	25.5	1290.1124327072
110	54	26	1290.2473375825
110	55	26.5	1290.3983595913
110	56	27	1290.5660312925
110	57	27.5	1292.9627929232
110	58	28	1297.5680668927
110	59	28.5	1302.2186743061
110	60	29	1305.1509369008
110	61	29.5	1307.9133662331
110	62	30	1308.0041236939
110	63	30.5	1307.1598031769
110	64	31	1305.3284252209
110	65	31.5	1302.4543533354
110	66	32	1299.9190667376
110	67	32.5	1297.4696003865
110	68	33	1295.1327251263
110	69	33.5	1293.1483466737
111	29	13.5	1828.4492605058
111	30	14	1827.9717985764
111	31	14.5	1826.9356443407
111	32	15	1825.4273127532
111	33	15.5	1823.4249823559
111	34	16	1820.8944406817
111	35	16.5	1817.8745993646
111	36	17	1814.5278739901
111	37	17.5	1811.2530251276
111	38	18	1808.0222720532
111	39	18.5	1804.8474655831
111	40	19	1801.7148674903
111	41	19.5	1798.6040562494
111	42	20	1795.517309485
111	43	20.5	1792.462459988
111	44	21	1789.4262636788
111	45	21.5	1786.3849650212
111	46	22	1783.3635627478
111	47	22.5	1780.361838772
111	48	23	1777.3597387522
111	49	23.5	1774.3817515271
111	50	24	1771.3827806767
111	51	24.5	1768.3910997193
111	52	25	1765.400418832
111	53	25.5	1762.4115028856
111	54	26	1759.1819501501
111	55	26.5	1755.5665615993
111	56	27	1751.5525880493
111	57	27.5	1748.5640016459
111	58	28	1748.9212215198
111	59	28.5	1749.4366540797
111	60	29	1746.043113824
111	61	29.5	1742.1581588592
111	62	30	1737.6902734237
111	63	30.5	1733.4557475653
111	64	31	1729.9958647052
111	65	31.5	1727.4056517715
111	66	32	1725.1207638504
111	67	32.5	1722.8934942484
111	68	33	1720.6072544819
111	69	33.5	1718.0908549139
112	30	14	1.4164578409246
112	31	14.5	2.4824548015006
112	32	15	3.3784160327407
112	33	15.5	4.4944738867933
112	34	16	5.4669218578523
112	35	16.5	6.4012776301157
112	36	17	6.7086115263942
112	37	17.5	6.5763102256202
112	38	18	6.3171859367498
112	39	18.5	6.2921699840057
112	40	19	6.2294935893241
112	41	19.5	6.2051299060559
112	42	20	6.1651864963079
112	43	20.5	6.0761208086982
112	44	21	6.031797274295
112	45	21.5	5.9926548150412
112	46	22	6.038866693347
112	47	22.5	5.9432795405787
112	48	23	6.0709688642103
112	49	23.5	5.9624967582467
112	50	24	6.0057504113854
112	51	24.5	5.9926919521638
112	52	25	6.0589249015013
112	53	25.5	6.0343040654301
112	54	26	6.7791530046574
112	55	26.5	7.5416349656363
112	56	27	8.4449410016177
112	57	27.5	9.0686044643367
112	58	28	9.2269711203708
112	59	28.5	9.3990976522305
112	60	29	9.4837869701455
112	61	29.5	9.6095622815353
112	62	30	9.4678050285356
112	63	30.5	8.2299250200915
112	64	31	8.232453234368
112	65	31.5	7.2133157674002
112	66	32	6.7384032630944
112	67	32.5	6.6086801346192
112	68	33	6.4929815531059
112	69	33.5	6.3659060140619
113	31	14.5	2.131993921152
113	32	15	1.7919224624801
113	33	15.5	2.2321157081053
113	34	16	1.944895942118
113	35	16.5	1.8687115445267
113	36	17	0.61466779255704
113	37	17.5	-0.26460260154804
113	38	18	-0.51824857774081
113	39	18.5	-0.050031905488265
113	40	19	-0.12535278936305
113	41	19.5	-0.048727366536514
113	42	20	-0.079886819496007
113	43	20.5	-0.17813137521939
113	44	21	-0.088647068806321
113	45	21.5	-0.078284918507727
113	46	22	0.092423756611606
113	47	22.5	-0.19117430553644
113	48	23	0.25537864726314
113	49	23.5	-0.21694421192713
113	50	24	0.086507306277342
113	51	24.5	-0.026116918443144
113	52	25	0.13246589867493
113	53	25.5	-0.049241672142323
113	54	26	1.4896978784544
113	55	26.5	1.5249639219579
113	56	27	1.8066120719628
113	57	27.5	1.2473269254379
113	58	28	0.31673331206808
113	59	28.5	0.34425306371959
113	60	29	0.1693786358299
113	61	29.5	0.25155062277957
113	62	30	-0.28351450599928
113	63	30.5	-2.4757600168882
113	64	31	0.0050564285529227
113	65	31.5	-2.0382749339357
113	66	32	-0.94982500861149
113	67	32.5	-0.25944625695048
113	68	33	-0.23139716302663
113	69	33.5	-0.25415107808799
114	31	14.5	2.5066782919636
114	32	15	2.735517096392
114	33	15.5	3.7529572399002
114	34	16	3.9512733913416
114	35	16.5	4.3259047870461
114	36	17	2.4552945925509
114	37	17.5	0.973
114	38	18	0.973
114	39	18.5	1.3606782919536
114	40	19	1.2446498007441
114	41	19.5	1.3585379620984
114	42	20	1.3103596450821
114	43	20.5	0.973
114	44	21	1.2923836849469
114	45	21.5	1.3059049007018
114	46	22	1.5561695281921
114	47	22.5	0.973
114	48	23	1.7971792263313
114	49	23.5	0.973
114	50	24	1.5449381152699
114	51	24.5	1.3812494089022
114	52	25	1.616256881382
114	53	25.5	1.349782322966
114	54	26	3.8996393386261
114	55	26.5	4.2851072829618
114	56	27	5.2498933051852
114	57	27.5	4.3424404900586
114	58	28	2.3319978048083
114	59	28.5	2.4199148233029
114	60	29	2.0334269706084
114	61	29.5	2.2381078997366
114	62	30	0.973
114	63	30.5	0.973
114	64	31	1.5687075157698
114	65	31.5	0.973
114	66	32	0.973
114	67	32.5	0.973
114	68	33	0.973
114	69	33.5	0.973
115	32	15	0
115	83	33.500013572369	1
115	125	33.500245572369	0
116	32	15	2632.5024971736
116	33	15.5	2632.4112629094
116	34	16	2632.2557264407
116	35	16.5	2632.046540942
116	36	17	2631.7796099866
116	37	17.5	2631.4693699188
116	38	18	2631.1087677073
116	39	18.5	2630.6912564236
116	40	19	2630.2211270466
116	41	19.5	2629.7001976615
116	42	20	2629.127467525
116	43	20.5	2627.9482946057
116	44	21	2626.5207824378
116	45	21.5	2624.9747454907
116	46	22	2623.305051938
116	47	22.5	2621.5107115316
116	48	23	2619.596805019
116	49	23.5	2617.5657649528
116	50	24	2615.4214770246
116	51	24.5	2613.1594715955
116	52	25	2610.7926327486
116	53	25.5	2608.3161272727
116	54	26	2605.7380059712
116	55	26.5	2603.049756024
116	56	27	2600.3103813257
116	57	27.5	2597.5701128555
116	58	28	2594.8312854785
116	59	28.5	2592.0913602656
116	60	29	2589.3551494017
116	61	29.5	2586.6178660111
116	62	30	2583.8815153228
116	63	30.5	2581.1408372391
116	64	31	2578.4004359262
116	65	31.5	2575.6634780306
116	66	32	2572.9242128006
116	67	32.5	2570.1842987128
116	68	33	2567.4429618594
116	69	33.5	2564.7052135196
117	32	15	3029.236753596
117	33	15.5	3028.4254601514
117	34	16	3027.0423644632
117	35	16.5	3025.1821990376
117	36	17	3022.808536727
117	37	17.5	3020.049751577
117	38	18	3016.8431250649
117	39	18.5	3013.1304391511
117	40	19	3008.949851024
117	41	19.5	3004.3175278604
117	42	20	2999.224570632
117	43	20.5	2993.7660459541
117	44	21	2987.8312799223
117	45	21.5	2981.4037567368
117	46	22	2974.4621412447
117	47	22.5	2967.0023165699
117	48	23	2959.045405509
117	49	23.5	2950.6015212005
117	50	24	2941.6868180931
117	51	24.5	2932.282714027
117	52	25	2922.4427735293
117	53	25.5	2912.1469029188
117	54	26	2901.4285727572
117	55	26.5	2890.2523916848
117	56	27	2878.8636636073
117	57	27.5	2867.4712197455
117	58	28	2856.0847671116
117	59	28.5	2844.6937503144
117	60	29	2833.3181756223
117	61	29.5	2821.9381419867
117	62	30	2810.5619859854
117	63	30.5	2799.1678391891
117	64	31	2787.7748430446
117	65	31.5	2776.3961626282
117	66	32	2765.0078896554
117	67	32.5	2753.6169191105
117	68	33	2742.220033532
117	69	33.5	2730.8380669085
118	33	15.5	2.084097520208
118	34	16	3.2391351811517
118	35	16.5	4.1573262654523
118	36	17	5.1217595478449
118	37	17.5	5.8415105413202
118	38	18	6.8513691488256
118	39	18.5	7.8911696032689
118	40	19	8.7575069753498
118	41	19.5	9.7138741975276
118	42	20	10.643074481399
118	43	20.5	11.638626604914
118	44	21	12.638432870651
118	45	21.5	13.606719043322
118	46	22	14.734962963429
118	47	22.5	15.734003968185
118	48	23	16.723948394728
118	49	23.5	17.772403897138
118	50	24	18.763310016824
118	51	24.5	19.716438269121
118	52	25	20.591352474852
118	53	25.5	21.536581952602
118	54	26	22.465178214493
118	55	26.5	23.327375010643
118	56	27	23.405656991872
118	57	27.5	23.440824131438
118	58	28	23.426694789914
118	59	28.5	23.451861613594
118	60	29	23.453859793915
118	61	29.5	23.371477725258
118	62	30	23.380997693721
118	63	30.5	23.453194206796
118	64	31	23.452989128645
118	65	31.5	23.360877730787
118	66	32	23.458014002667
118	67	32.5	23.413517952718
118	68	33	23.430026772521
118	69	33.5	23.434103748427
119	34	16	0
120	34	16	1287.3528578302
120	35	16.5	1287.3682744765
120	36	17	1287.406815918
120	37	17.5	1287.4680855914
120	38	18	1287.5530168311
120	39	18.5	1287.6590282088
120	40	19	1287.7848676518
120	41	19.5	1287.9308224549
120	42	20	1288.0772805525
120	43	20.5	1288.2201192176
120	44	21	1288.3597012097
120	45	21.5	1288.4965500027
120	46	22	1288.6304528222
120	47	22.5	1288.7635234647
120	48	23	1288.8945899954
120	49	23.5	1289.0244601191
120	50	24	1289.1529814027
120	51	24.5	1289.2811131944
120	52	25	1289.4085653451
120	53	25.5	1289.5356358173
120	54	26	1289.666477462
120	55	26.5	1289.8082295564
120	56	27	1289.962514331
120	57	27.5	1290.1246182881
120	58	28	1290.2864775378
120	59	28.5	1290.448244717
120	60	29	1290.6099974726
120	61	29.5	1293.7185841568
120	62	30	1298.2486590961
120	63	30.5	1302.8277023578
120	64	31	1305.4020811662
120	65	31.5	1307.8880429405
120	66	32	1308.1849228678
120	67	32.5	1307.4514485978
120	68	33	1306.7363867697
120	69	33.5	1304.1457880645
121	34	16	1828.4742939621
121	35	16.5	1828.1052274471
121	36	17	1827.1825653277
121	37	17.5	1825.715801131
121	38	18	1823.6825913098
121	39	18.5	1821.1447339188
121	40	19	1818.1322029317
121	41	19.5	1814.638120655
121	42	20	1811.1319897706
121	43	20.5	1807.7125062216
121	44	21	1804.3709857371
121	45	21.5	1801.0948966211
121	46	22	1797.8893325832
121	47	22.5	1794.7036904301
121	48	23	1791.5660256715
121	49	23.5	1788.4570022793
121	50	24	1785.3802694185
121	51	24.5	1782.3128607906
121	52	25	1779.2617224157
121	53	25.5	1776.219721226
121	54	26	1773.0874401238
121	55	26.5	1769.6939685158
121	56	27	1766.0004710434
121	57	27.5	1762.1197863976
121	58	28	1758.2449599225
121	59	28.5	1754.3723375667
121	60	29	1750.5000605043
121	61	29.5	1748.5807467466
121	62	30	1748.9966523936
121	63	30.5	1749.3104052125
121	64	31	1745.6899159523
121	65	31.5	1742.1937723868
121	66	32	1738.5970366271
121	67	32.5	1734.9184386311
121	68	33	1731.3321846658
121	69	33.5	1728.9300312186
122	34	16	2.3100753218873
122	35	16.5	1.8363821686013
122	36	17	1.9288665647851
122	37	17.5	1.4395019869506
122	38	18	2.0197172150109
122	39	18.5	2.0796009088866
122	40	19	1.7326747441618
122	41	19.5	1.9127344443556
122	42	20	1.8584005677421
122	43	20.5	1.9911042470299
122	44	21	1.9996125314757
122	45	21.5	1.9365723453416
122	46	22	2.2564878402138
122	47	22.5	1.998082009512
122	48	23	1.9798888530862
122	49	23.5	2.096911004819
122	50	24	1.9818122393731
122	51	24.5	1.9062565045944
122	52	25	1.7498284114618
122	53	25.5	1.8904589554994
122	54	26	1.8571925237822
122	55	26.5	1.7243935922999
122	56	27	0.15656396245785
122	57	27.5	0.070334279132069
122	58	28	-0.028258683048186
122	59	28.5	0.050333647360098
122	60	29	0.0039963606418993
122	61	29.5	-0.16476413731463
122	62	30	0.01903993692715
122	63	30.5	0.1443930261489
122	64	31	-0.00041015630122132
122	65	31.5	-0.18422279571649
122	66	32	0.19427254376001
122	67	32.5	-0.088992099896998
122	68	33	0.033017639606257
122	69	33.5	0.0081539518106695
123	34	16	3.0727131223212
123	35	16.5	3.1570870766336
123	36	17	3.7503703209084
123	37	17.5	3.4367451840235
123	38	18	4.8051367945339
123	39	18.5	5.4909903700006
123	40	19	5.2514207798271
123	41	19.5	6.1410661847045
123	42	20	6.5015554482272
123	43	20.5	7.4019526637031
123	44	21	7.9967111047532
123	45	21.5	8.3495531077827
123	46	22	10.129429847778
123	47	22.5	9.8053497203328
123	48	23	10.32875384901
123	49	23.5	11.467298318837
123	50	24	11.587053758384
123	51	24.5	11.82704732983
123	52	25	11.593420838616
123	53	25.5	12.883794863715
123	54	26	13.296136230002
123	55	26.5	13.102331509984
123	56	27	4.3067295234354
123	57	27.5	3.8279680357065
123	58	28	3.2682571889643
123	59	28.5	3.7173275987413
123	60	29	3.455836860507
123	61	29.5	2.4887205461419
123	62	30	3.5259464368756
123	63	30.5	4.2492554599657
123	64	31	3.4307549099955
123	65	31.5	2.3774745244303
123	66	32	4.5323785044854
123	67	32.5	2.9230103783583
123	68	33	3.6149072002196
123	69	33.5	3.4753360528581
124	35	16.5	1.222376597012
124	36	17	2.2627367291376
124	37	17.5	3.4134972266149
124	38	18	4.4987311427802
124	39	18.5	5.4494313927106
124	40	19	6.4006966777326
124	41	19.5	7.1928994294844
124	42	20	6.9339680887608
124	43	20.5	6.7780279333791
124	44	21	6.6283131391108
124	45	21.5	6.4914279895258
124	46	22	6.3533169280941
124	47	22.5	6.389732883509
124	48	23	6.2651583193623
124	49	23.5	6.1063174628618
124	50	24	6.085191819833
124	51	24.5	6.1405694833689
124	52	25	6.0984070756879
124	53	25.5	6.0654968999288
124	54	26	6.4868372192253
124	55	26.5	7.0398802450092
124	56	27	7.7286868439189
124	57	27.5	7.7402818295106
124	58	28	7.7485378174184
124	59	28.5	7.794443250655
124	60	29	7.7722982259796
124	61	29.5	8.5923167222974
124	62	30	9.4803630234839
124	63	30.5	9.0435040485131
124	64	31	8.8726582209659
124	65	31.5	8.2425155534146
124	66	32	7.6902473312006
124	67	32.5	7.4199847820913
124	68	33	7.2491907927816
124	69	33.5	7.0061588905287
125	36	17	2.0807202642513
125	37	17.5	2.3015209949545
125	38	18	2.1704678323306
125	39	18.5	1.9014004998608
125	40	19	1.9025305700442
125	41	19.5	1.5844055035036
125	42	20	-0.51786268144726
125	43	20.5	-0.31188031076345
125	44	21	-0.29942958853648
125	45	21.5	-0.27377029917005
125	46	22	-0.27622212286338
125	47	22.5	0.072831910829709
125	48	23	-0.24914912829342
125	49	23.5	-0.31768171300098
125	50	24	-0.042251286057592
125	51	24.5	0.1107553270718
125	52	25	-0.084324815362004
125	53	25.5	-0.065820351518092
125	54	26	0.84268063859298
125	55	26.5	1.1060860515678
125	56	27	1.3776131978193
125	57	27.5	0.023189971183461
125	58	28	0.01651197581552
125	59	28.5	0.091810866473242
125	60	29	-0.04429004935082
125	61	29.5	1.6400369926356
125	62	30	1.7760926023731
125	63	30.5	-0.87371794994167
125	64	31	-0.34169165509446
125	65	31.5	-1.2602853351025
125	66	32	-1.1045364444279
125	67	32.5	-0.54052509821863
125	68	33	-0.34158797861941
125	69	33.5	-0.48606380450585
126	36	17	2.3548820857863
126	37	17.5	3.1716941421735
126	38	18	3.6886383437688
126	39	18.5	3.884963985717
126	40	19	4.3777766709134
126	41	19.5	4.23791292461
126	42	20	0.973
126	43	20.5	0.973
126	44	21	0.973
126	45	21.5	0.973
126	46	22	0.973
126	47	22.5	1.5544966487427
126	48	23	0.973
126	49	23.5	0.973
126	50	24	1.3624027381821
126	51	24.5	1.5915147622106
126	52	25	1.301205446332
126	53	25.5	1.3269988387154
126	54	26	2.765526809381
126	55	26.5	3.3584323475039
126	56	27	4.0914399652828
126	57	27.5	1.5694893153715
126	58	28	1.5576004795756
126	59	28.5	1.7022120149246
126	60	29	1.445348077382
126	61	29.5	4.9791980196534
126	62	30	5.7040045519361
126	63	30.5	0.973
126	64	31	0.973
126	65	31.5	0.973
126	66	32	0.973
126	67	32.5	0.973
126	68	33	0.973
126	69	33.5	0.973
127	40	19	0
128	40	19	1287.36321585
128	41	19.5	1287.3973129066
128	42	20	1287.4511138217
128	43	20.5	1287.5222543478
128	44	21	1287.6143088412
128	45	21.5	1287.7257522403
128	46	22	1287.8556762772
128	47	22.5	1288.0053717273
128	48	23	1288.1683776429
128	49	23.5	1288.3257390398
128	50	24	1288.4770477553
128	51	24.5	1288.624383638
128	52	25	1288.7678350392
128	53	25.5	1288.9082990704
128	54	26	1289.0473915294
128	55	26.5	1289.1910868547
128	56	27	1289.3419494666
128	57	27.5	1289.4997446948
128	58	28	1289.658405524
128	59	28.5	1289.8172138106
128	60	29	1289.977278357
128	61	29.5	1290.1420117291
128	62	30	1290.3197949451
128	63	30.5	1290.5073633424
128	64	31	1291.5497199157
128	65	31.5	1295.7613106546
128	66	32	1299.752265499
128	67	32.5	1303.2289065789
128	68	33	1305.4173334397
128	69	33.5	1307.5651558831
129	40	19	1828.2263283413
129	41	19.5	1827.4100624938
129	42	20	1826.1220964929
129	43	20.5	1824.4190292023
129	44	21	1822.215292383
129	45	21.5	1819.5473952154
129	46	22	1816.4370811675
129	47	22.5	1812.853449747
129	48	23	1808.9511726825
129	49	23.5	1805.1840224685
129	50	24	1801.5617703097
129	51	24.5	1798.0346257044
129	52	25	1794.6004735725
129	53	25.5	1791.2378375269
129	54	26	1787.9080362115
129	55	26.5	1784.4680446638
129	56	27	1780.8564719912
129	57	27.5	1777.0789360814
129	58	28	1773.2806781335
129	59	28.5	1769.4788901303
129	60	29	1765.6470279191
129	61	29.5	1761.7033964442
129	62	30	1757.447358476
129	63	30.5	1752.9570683399
129	64	31	1748.9754203232
129	65	31.5	1748.7209764961
129	66	32	1749.1632989468
129	67	32.5	1748.7461698456
129	68	33	1745.6684658481
129	69	33.5	1742.6478660572
130	41	19.5	2.065513285686
130	42	20	2.9240993874418
130	43	20.5	3.7950039299941
130	44	21	4.7734805876311
130	45	21.5	5.6879023730467
130	46	22	6.5898310169941
130	47	22.5	7.5990618778989
130	48	23	7.7721649363796
130	49	23.5	7.3721099343199
130	50	24	7.149379716798
130	51	24.5	6.9863222823231
130	52	25	6.8298737109141
130	53	25.5	6.6916455239091
130	54	26	6.6829343015967
130	55	26.5	7.0223018462572
130	56	27	7.3812398442971
130	57	27.5	7.4859868196552
130	58	28	7.6493453207604
130	59	28.5	7.6085962153345
130	60	29	7.6921069778571
130	61	29.5	8.1960712383326
130	62	30	8.8076184742723
130	63	30.5	8.8232325907748
130	64	31	8.6536523406029
130	65	31.5	8.3975680951608
130	66	32	7.9078427221458
130	67	32.5	7.6718454924393
130	68	33	7.4304328828099
130	69	33.5	7.3892073234266
131	42	20	1.7171722035117
131	43	20.5	1.7418090851046
131	44	21	1.9569533152739
131	45	21.5	1.8288435708312
131	46	22	1.8038572878949
131	47	22.5	2.0184617218096
131	48	23	0.34620611696141
131	49	23.5	-0.80011000411945
131	50	24	-0.44546043504378
131	51	24.5	-0.32611486894979
131	52	25	-0.31289714281812
131	53	25.5	-0.27645637400994
131	54	26	-0.017422444624829
131	55	26.5	0.67873508932102
131	56	27	0.71787599607982
131	57	27.5	0.20949395071612
131	58	28	0.32671700221055
131	59	28.5	-0.081498210851791
131	60	29	0.16702152504503
131	61	29.5	1.0079285209512
131	62	30	1.2230944718794
131	63	30.5	0.031228233004967
131	64	31	-0.33916050034381
131	65	31.5	-0.5121684908843
131	66	32	-0.97945074602991
131	67	32.5	-0.47199445941309
131	68	33	-0.4828252192588
131	69	33.5	-0.082451118766572
132	42	20	2.4634731273316
132	43	20.5	2.8911715661316
132	44	21	3.6016170273511
132	45	21.5	3.9083340027807
132	46	22	4.3191240792421
132	47	22.5	5.2136739820135
132	48	23	2.1767759861862
132	49	23.5	0.973
132	50	24	0.973
132	51	24.5	0.973
132	52	25	0.973
132	53	25.5	0.973
132	54	26	1.4318967657698
132	55	26.5	2.6294197387639
132	56	27	2.780235558582
132	57	27.5	1.8878311193926
132	58	28	2.1226518125731
132	59	28.5	1.3682875896638
132	60	29	1.832735819701
132	61	29.5	3.5471540633161
132	62	30	4.1941812018731
132	63	30.5	1.6654899682821
132	64	31	0.973
132	65	31.5	0.973
132	66	32	0.973
132	67	32.5	0.973
132	68	33	0.973
132	69	33.5	1.3568970826736
133	69	33.5	33.5
134	69	33.5	33.5
135	71	33.500012	1
136	110	33.500245120617	833315810.18865
137	114	33.500245217053	321042990.07915
138	118	33.500245313941	399660019.66968
139	122	33.500245418678	703217493.13734
140	126	33.500245572369	889287316.93886

