version 3
run Default-0-20221206-12:11:52-34045
attr configname Default
attr datetime 20221206-12:11:52
attr datetimef 20221206-121152
attr experiment Default
attr inifile omnetpp.ini
attr iterationvars ""
attr iterationvarsd ""
attr iterationvarsf ""
attr measurement ""
attr network v3_0
attr processid 34045
attr repetition 0
attr replication #0
attr resultdir results
attr runnumber 0
attr seedset 0
config image-path ../../../inet4.4/images:../../../veins-5.2/images
config cmdenv-express-mode true
config cmdenv-autoflush true
config cmdenv-status-frequency 1s
config **.cmdenv-log-level info
config image-path ../../images
config network v3_0
config debug-on-errors true
config print-undisposed true
config **.scalar-recording true
config **.vector-recording true
config *.playgroundSizeX 3500m
config *.playgroundSizeY 3500m
config *.playgroundSizeZ 50m
config *.annotations.draw true
config *.obstacles.obstacles "xmldoc(\"config.xml\", \"//AnalogueModel[@type='SimpleObstacleShadowing']/obstacles\")"
config *.manager.updateInterval 0.5s
config *.manager.host "\"localhost\""
config *.manager.port 9999
config *.manager.autoShutdown true
config *.manager.launchConfig "xmldoc(\"v3_0_Traffic.launchd.xml\")"
config *.rsu[0].mobility.x 2000
config *.rsu[0].mobility.y 2000
config *.rsu[0].mobility.z 3
config *.rsu[*].applType "\"RSU\""
config *.rsu[*].appl.headerLength "80 bit"
config *.rsu[*].appl.sendBeacons false
config *.rsu[*].appl.dataOnSch false
config *.rsu[*].appl.beaconInterval 1s
config *.rsu[*].appl.beaconUserPriority 7
config *.rsu[*].appl.dataUserPriority 5
config *.rsu[*].nic.phy80211p.antennaOffsetZ "0 m"
config *.connectionManager.sendDirect true
config *.connectionManager.maxInterfDist 2600m
config *.connectionManager.drawMaxIntfDist false
config *.**.nic.mac1609_4.useServiceChannel false
config *.**.nic.mac1609_4.txPower 20mW
config *.**.nic.mac1609_4.bitrate 6Mbps
config *.**.nic.phy80211p.minPowerLevel -110dBm
config *.**.nic.phy80211p.useNoiseFloor true
config *.**.nic.phy80211p.noiseFloor -98dBm
config *.**.nic.phy80211p.decider "xmldoc(\"config.xml\")"
config *.**.nic.phy80211p.analogueModels "xmldoc(\"config.xml\")"
config *.**.nic.phy80211p.usePropagationDelay true
config *.**.nic.phy80211p.antenna "xmldoc(\"antenna.xml\", \"/root/Antenna[@id='monopole']\")"
config *.node[*].nic.phy80211p.antennaOffsetY "0 m"
config *.node[*].nic.phy80211p.antennaOffsetZ "1.895 m"
config *.node[*].applType "\"VeinsApp\""
config *.node[*].appl.headerLength "80 bit"
config *.node[*].appl.sendBeacons false
config *.node[*].appl.dataOnSch false
config *.node[*].appl.beaconInterval 1s
config *.node[*].veinsmobility.x 0
config *.node[*].veinsmobility.y 0
config *.node[*].veinsmobility.z 0
config *.node[*].veinsmobility.setHostSpeed false
config *.node[*0].veinsmobility.accidentCount 0
config *.node[*0].veinsmobility.accidentStart 73s
config *.node[*0].veinsmobility.accidentDuration 50s

vector 0 v3_0.node[0].veinsmobility posx ETV
vector 1 v3_0.node[0].veinsmobility posy ETV
vector 2 v3_0.node[1].veinsmobility posx ETV
vector 3 v3_0.node[1].veinsmobility posy ETV
vector 4 v3_0.node[2].veinsmobility posx ETV
vector 5 v3_0.node[2].veinsmobility posy ETV
vector 6 v3_0.node[3].veinsmobility posx ETV
vector 7 v3_0.node[3].veinsmobility posy ETV
vector 8 v3_0.node[0].veinsmobility speed ETV
vector 9 v3_0.node[1].veinsmobility speed ETV
vector 10 v3_0.node[2].veinsmobility speed ETV
vector 11 v3_0.node[3].veinsmobility speed ETV
vector 12 v3_0.node[0].veinsmobility acceleration ETV
vector 13 v3_0.node[0].veinsmobility co2emission ETV
vector 14 v3_0.node[1].veinsmobility acceleration ETV
vector 15 v3_0.node[1].veinsmobility co2emission ETV
vector 16 v3_0.node[2].veinsmobility acceleration ETV
vector 17 v3_0.node[2].veinsmobility co2emission ETV
vector 18 v3_0.node[3].veinsmobility acceleration ETV
vector 19 v3_0.node[3].veinsmobility co2emission ETV
vector 20 v3_0.node[4].veinsmobility posx ETV
vector 21 v3_0.node[4].veinsmobility posy ETV
vector 22 v3_0.node[5].veinsmobility posx ETV
vector 23 v3_0.node[5].veinsmobility posy ETV
vector 24 v3_0.node[6].veinsmobility posx ETV
vector 25 v3_0.node[6].veinsmobility posy ETV
vector 26 v3_0.node[4].veinsmobility speed ETV
vector 27 v3_0.node[5].veinsmobility speed ETV
vector 28 v3_0.node[6].veinsmobility speed ETV
vector 29 v3_0.node[7].veinsmobility posx ETV
vector 30 v3_0.node[7].veinsmobility posy ETV
vector 31 v3_0.node[4].veinsmobility acceleration ETV
vector 32 v3_0.node[4].veinsmobility co2emission ETV
vector 33 v3_0.node[5].veinsmobility acceleration ETV
vector 34 v3_0.node[5].veinsmobility co2emission ETV
vector 35 v3_0.node[6].veinsmobility acceleration ETV
vector 36 v3_0.node[6].veinsmobility co2emission ETV
vector 37 v3_0.node[7].veinsmobility speed ETV
vector 38 v3_0.node[7].veinsmobility acceleration ETV
vector 39 v3_0.node[7].veinsmobility co2emission ETV
vector 40 v3_0.node[8].veinsmobility posx ETV
vector 41 v3_0.node[8].veinsmobility posy ETV
vector 42 v3_0.node[9].veinsmobility posx ETV
vector 43 v3_0.node[9].veinsmobility posy ETV
vector 44 v3_0.node[10].veinsmobility posx ETV
vector 45 v3_0.node[10].veinsmobility posy ETV
vector 46 v3_0.node[8].veinsmobility speed ETV
vector 47 v3_0.node[9].veinsmobility speed ETV
vector 48 v3_0.node[10].veinsmobility speed ETV
vector 49 v3_0.node[8].veinsmobility acceleration ETV
vector 50 v3_0.node[8].veinsmobility co2emission ETV
vector 51 v3_0.node[9].veinsmobility acceleration ETV
vector 52 v3_0.node[9].veinsmobility co2emission ETV
vector 53 v3_0.node[10].veinsmobility acceleration ETV
vector 54 v3_0.node[10].veinsmobility co2emission ETV
vector 55 v3_0.node[11].veinsmobility posx ETV
vector 56 v3_0.node[11].veinsmobility posy ETV
vector 57 v3_0.node[11].veinsmobility speed ETV
vector 58 v3_0.node[12].veinsmobility posx ETV
vector 59 v3_0.node[12].veinsmobility posy ETV
vector 60 v3_0.node[11].veinsmobility acceleration ETV
vector 61 v3_0.node[11].veinsmobility co2emission ETV
vector 62 v3_0.node[13].veinsmobility posx ETV
vector 63 v3_0.node[13].veinsmobility posy ETV
vector 64 v3_0.node[12].veinsmobility speed ETV
vector 65 v3_0.node[12].veinsmobility acceleration ETV
vector 66 v3_0.node[12].veinsmobility co2emission ETV
vector 67 v3_0.node[13].veinsmobility speed ETV
vector 68 v3_0.node[14].veinsmobility posx ETV
vector 69 v3_0.node[14].veinsmobility posy ETV
vector 70 v3_0.node[13].veinsmobility acceleration ETV
vector 71 v3_0.node[13].veinsmobility co2emission ETV
vector 72 v3_0.node[14].veinsmobility speed ETV
vector 73 v3_0.node[14].veinsmobility acceleration ETV
vector 74 v3_0.node[14].veinsmobility co2emission ETV
vector 75 v3_0.node[15].veinsmobility posx ETV
vector 76 v3_0.node[15].veinsmobility posy ETV
vector 77 v3_0.node[16].veinsmobility posx ETV
vector 78 v3_0.node[16].veinsmobility posy ETV
vector 79 v3_0.node[15].veinsmobility speed ETV
vector 80 v3_0.node[16].veinsmobility speed ETV
vector 81 v3_0.node[17].veinsmobility posx ETV
vector 82 v3_0.node[17].veinsmobility posy ETV
vector 83 v3_0.node[15].veinsmobility acceleration ETV
vector 84 v3_0.node[15].veinsmobility co2emission ETV
vector 85 v3_0.node[16].veinsmobility acceleration ETV
vector 86 v3_0.node[16].veinsmobility co2emission ETV
vector 87 v3_0.node[17].veinsmobility speed ETV
vector 88 v3_0.node[17].veinsmobility acceleration ETV
vector 89 v3_0.node[17].veinsmobility co2emission ETV
vector 90 v3_0.node[18].veinsmobility posx ETV
vector 91 v3_0.node[18].veinsmobility posy ETV
vector 92 v3_0.node[18].veinsmobility speed ETV
vector 93 v3_0.node[18].veinsmobility acceleration ETV
vector 94 v3_0.node[18].veinsmobility co2emission ETV
vector 95 v3_0.node[19].veinsmobility posx ETV
vector 96 v3_0.node[19].veinsmobility posy ETV
vector 97 v3_0.node[19].veinsmobility speed ETV
vector 98 v3_0.node[20].veinsmobility posx ETV
vector 99 v3_0.node[20].veinsmobility posy ETV
vector 100 v3_0.node[19].veinsmobility acceleration ETV
vector 101 v3_0.node[19].veinsmobility co2emission ETV
vector 102 v3_0.node[20].veinsmobility speed ETV
vector 103 v3_0.node[20].veinsmobility acceleration ETV
vector 104 v3_0.node[20].veinsmobility co2emission ETV
vector 105 v3_0.node[21].veinsmobility posx ETV
vector 106 v3_0.node[21].veinsmobility posy ETV
vector 107 v3_0.node[21].veinsmobility speed ETV
vector 108 v3_0.node[21].veinsmobility acceleration ETV
vector 109 v3_0.node[21].veinsmobility co2emission ETV
0	2	0.5	2631.7350595066
0	3	1	2631.6926603558
0	4	1.5	2631.6229630968
0	5	2	2631.5282912727
0	6	2.5	2631.4086490547
0	7	3	2631.2604225505
0	8	3.5	2631.0878849679
0	9	4	2630.892145407
0	10	4.5	2630.6724391839
0	11	5	2630.4276965775
0	12	5.5	2630.1573760558
0	13	6	2629.8625589869
0	14	6.5	2629.5448277204
0	15	7	2629.2030409186
0	16	7.5	2628.6408029457
0	17	8	2627.8116486142
0	18	8.5	2626.9391961291
0	19	9	2626.0184382494
0	20	9.5	2625.0464957781
0	21	10	2624.0224871623
0	22	10.5	2622.9469447999
0	23	11	2621.8176152725
0	24	11.5	2620.6311656146
0	25	12	2619.3974312966
0	26	12.5	2618.1143565062
0	27	13	2616.7776122186
0	28	13.5	2615.3838827169
0	29	14	2613.933876192
0	30	14.5	2612.430882662
0	31	15	2610.8750346797
0	32	15.5	2609.2680088609
0	33	16	2607.6054052793
0	34	16.5	2605.8840043985
0	35	17	2604.1164308966
0	36	17.5	2602.2985366323
0	37	18	2600.4298359854
0	38	18.5	2598.5080573106
0	39	19	2596.5386160006
0	40	19.5	2594.5145886635
0	41	20	2592.4347862339
0	42	20.5	2590.3038963825
0	43	21	2588.1187586169
0	44	21.5	2585.876224402
0	45	22	2583.5771736375
0	46	22.5	2581.2272843939
0	47	23	2578.8250272302
0	48	23.5	2576.3650223406
0	49	24	2573.8493392041
0	50	24.5	2571.2797833098
0	51	25	2568.6863330575
0	52	25.5	2566.0916482897
0	53	26	2563.498984852
0	54	26.5	2560.9030062138
0	55	27	2558.3092978451
0	56	27.5	2555.7130857587
0	57	28	2553.1184064959
0	58	28.5	2550.5230329406
0	59	29	2547.9285410434
0	60	29.5	2545.3335305103
0	61	30	2542.739428506
0	62	30.5	2540.1439816806
0	63	31	2537.5483003752
0	64	31.5	2534.9544071521
0	65	32	2532.3592119595
0	66	32.5	2529.7648866439
0	67	33	2527.1705369354
0	68	33.5	2524.5772709372
0	69	34	2521.9808218135
0	70	34.5	2519.3844282731
0	71	35	2516.7892806227
0	72	35.5	2514.1939739176
0	73	36	2511.5996591776
0	74	36.5	2509.0064994983
0	75	37	2506.4130835157
0	76	37.5	2503.8182156581
0	77	38	2501.222583251
0	78	38.5	2498.628201986
0	79	39	2496.0341355706
0	80	39.5	2493.4383296432
0	81	40	2490.8435546545
0	82	40.5	2488.2493534428
1	2	0.5	3022.4123751242
1	3	1	3022.0353440456
1	4	1.5	3021.415566708
1	5	2	3020.5737050353
1	6	2.5	3019.5097961174
1	7	3	3018.1917037079
1	8	3.5	3016.6574269645
1	9	4	3014.916828474
1	10	4.5	3012.9631083431
1	11	5	3010.786754163
1	12	5.5	3008.3829504047
1	13	6	3005.7613130454
1	14	6.5	3002.9359130058
1	15	7	2999.8966010297
1	16	7.5	2996.6450931979
1	17	8	2993.1979513299
1	18	8.5	2989.5708009005
1	19	9	2985.7428247118
1	20	9.5	2981.7020527357
1	21	10	2977.4448199878
1	22	10.5	2972.9733398687
1	23	11	2968.2782439757
1	24	11.5	2963.345675773
1	25	12	2958.2165254327
1	26	12.5	2952.8822460799
1	27	13	2947.324840147
1	28	13.5	2941.5305228094
1	29	14	2935.5022383137
1	30	14.5	2929.2536646416
1	31	15	2922.7853528736
1	32	15.5	2916.1042734012
1	33	16	2909.1921338886
1	34	16.5	2902.0355493743
1	35	17	2894.6870059334
1	36	17.5	2887.1292580068
1	37	18	2879.3602866642
1	38	18.5	2871.3706477275
1	39	19	2863.1828552512
1	40	19.5	2854.7681257948
1	41	20	2846.1215159176
1	42	20.5	2837.262514228
1	43	21	2828.1779812351
1	44	21.5	2818.8548271619
1	45	22	2809.2967101177
1	46	22.5	2799.5272362214
1	47	23	2789.5400469452
1	48	23.5	2779.3127761837
1	49	24	2768.854027628
1	50	24.5	2758.171307452
1	51	25	2747.3892484205
1	52	25.5	2736.6020569913
1	53	26	2725.8232690776
1	54	26.5	2715.0306984866
1	55	27	2704.2475663582
1	56	27.5	2693.4540252248
1	57	28	2682.6668566819
1	58	28.5	2671.8768016752
1	59	29	2661.0903363554
1	60	29.5	2650.3012150247
1	61	30	2639.5158710303
1	62	30.5	2628.7249357523
1	63	31	2617.933025592
1	64	31.5	2607.148549634
1	65	32	2596.3586605554
1	66	32.5	2585.5723881116
1	67	33	2574.7860142523
1	68	33.5	2564.0041460712
1	69	34	2553.2090435969
1	70	34.5	2542.4141722191
1	71	35	2531.6244808035
1	72	35.5	2520.8341280958
1	73	36	2510.0478996225
1	74	36.5	2499.2664734768
1	75	37	2488.4839817137
1	76	37.5	2477.6954535758
1	77	38	2466.9037467167
1	78	38.5	2456.1172416564
1	79	39	2445.3320456278
1	80	39.5	2434.5396173326
1	81	40	2423.7514753109
1	82	40.5	2412.9657188477
2	2	0.5	1287.3631844854
2	3	1	1287.3971152697
2	4	1.5	1287.4522898303
2	5	2	1287.5264110332
2	6	2.5	1287.62113957
2	7	3	1287.7358140606
2	8	3.5	1287.8709316116
2	9	4	1288.0250132503
2	10	4.5	1288.1995021269
2	11	5	1288.3803450145
2	12	5.5	1288.5613218796
2	13	6	1288.7420702237
2	14	6.5	1288.9232484703
2	15	7	1289.1040265976
2	16	7.5	1289.2841547827
2	17	8	1289.4648170919
2	18	8.5	1289.6461204254
2	19	9	1289.8267889973
2	20	9.5	1290.0076002722
2	21	10	1290.1889275151
2	22	10.5	1290.3695223263
2	23	11	1290.5501811963
2	24	11.5	1292.6540879257
2	25	12	1297.5639150366
2	26	12.5	1302.8378810985
2	27	13	1306.2425469026
2	28	13.5	1308.2562478072
2	29	14	1306.9227445516
2	30	14.5	1302.2154254551
2	31	15	1297.5804711034
2	32	15.5	1293.6998546909
2	33	16	1292.3351438564
2	34	16.5	1292.4916450585
2	35	17	1292.6480421006
2	36	17.5	1292.8044126967
2	37	18	1292.9607878359
2	38	18.5	1293.1163144546
2	39	19	1293.2722946536
2	40	19.5	1293.42863945
2	41	20	1293.5848936621
2	42	20.5	1293.7413971183
2	43	21	1293.8970749625
2	44	21.5	1294.0528945931
2	45	22	1294.2089592799
2	46	22.5	1294.3654001004
2	47	23	1294.5220096927
2	48	23.5	1294.6781146179
2	49	24	1294.8335943035
2	50	24.5	1294.9893859179
2	51	25	1295.1450464214
2	52	25.5	1295.3011772342
2	53	26	1295.4576196355
2	54	26.5	1295.5972772553
2	55	27	1295.7222422449
2	56	27.5	1295.8614929161
2	57	28	1296.0132666022
2	58	28.5	1296.1741153949
2	59	29	1296.3396362179
2	60	29.5	1296.5189786375
2	61	30	1296.7132164361
2	62	30.5	1296.8634114895
2	63	31	1296.9796594604
2	64	31.5	1297.0746293006
2	65	32	1297.1695770607
2	66	32.5	1297.2645506554
2	67	33	1297.359677108
2	68	33.5	1297.0053546188
2	69	34	1296.5672262392
2	70	34.5	1296.0991005796
2	71	35	1295.6436717052
2	72	35.5	1295.2007070808
2	73	36	1294.7851236622
2	74	36.5	1294.5125636539
2	75	37	1294.4019141947
2	76	37.5	1294.4444998708
2	77	38	1294.4870621768
2	78	38.5	1294.5296114372
2	79	39	1294.5974091637
2	80	39.5	1294.7275687865
2	81	40	1294.8578931703
2	82	40.5	1294.9880754326
3	2	0.5	1828.227079195
3	3	1	1827.4147938192
3	4	1.5	1826.0939434571
3	5	2	1824.3195203077
3	6	2.5	1822.0517682778
3	7	3	1819.3065204602
3	8	3.5	1816.071876375
3	9	4	1812.3832418723
3	10	4.5	1808.2060686797
3	11	5	1803.8767837603
3	12	5.5	1799.544291487
3	13	6	1795.2172698919
3	14	6.5	1790.8799566505
3	15	7	1786.5522220582
3	16	7.5	1782.2400467461
3	17	8	1777.9150847774
3	18	8.5	1773.5747770192
3	19	9	1769.2496651299
3	20	9.5	1764.9211369995
3	21	10	1760.5802568644
3	22	10.5	1756.2569107665
3	23	11	1751.9320311304
3	24	11.5	1748.6357935062
3	25	12	1748.9207613645
3	26	12.5	1749.2960902946
3	27	13	1744.5079231691
3	28	13.5	1738.9547530329
3	29	14	1732.2668259898
3	30	14.5	1727.1903217072
3	31	15	1722.99983963
3	32	15.5	1718.9507568683
3	33	16	1714.6683898177
3	34	16.5	1710.3294051997
3	35	17	1705.9933084091
3	36	17.5	1701.6579448339
3	37	18	1697.3224553019
3	38	18.5	1693.010490939
3	39	19	1688.6859510969
3	40	19.5	1684.3513028137
3	41	20	1680.0191659778
3	42	20.5	1675.6801188635
3	43	21	1671.363961787
3	44	21.5	1667.0438736901
3	45	22	1662.7169914255
3	46	22.5	1658.3796808859
3	47	23	1654.0376911573
3	48	23.5	1649.7096932884
3	49	24	1645.3990301434
3	50	24.5	1641.0797187919
3	51	25	1636.7640424827
3	52	25.5	1632.4353268854
3	53	26	1628.0979725132
3	54	26.5	1624.2259750105
3	55	27	1620.7613296257
3	56	27.5	1616.6744660605
3	57	28	1612.0453686332
3	58	28.5	1606.8896398498
3	59	29	1601.2832893953
3	60	29.5	1595.2087880848
3	61	30	1588.6297658775
3	62	30.5	1581.530589656
3	63	31	1574.2655425621
3	64	31.5	1567.0154586174
3	65	32	1559.7670602947
3	66	32.5	1552.5166897373
3	67	33	1545.2546498692
3	68	33.5	1538.0031152302
3	69	34	1530.7733739205
3	70	34.5	1523.5534358639
3	71	35	1516.3247553399
3	72	35.5	1509.0925059915
3	73	36	1501.846289414
3	74	36.5	1494.5961931935
3	75	37	1487.3409345467
3	76	37.5	1480.0942719905
3	77	38	1472.851586258
3	78	38.5	1465.6111204317
3	79	39	1458.3558320208
3	80	39.5	1451.1042794175
3	81	40	1443.8435475258
3	82	40.5	1436.5907336148
4	2	0.5	243.31602054439
4	3	1	243.30913937406
4	4	1.5	243.29782204749
4	5	2	243.28247408115
4	6	2.5	243.26342766208
4	7	3	243.24040584138
4	8	3.5	243.21380397596
4	9	4	243.18310993013
4	10	4.5	243.1484340321
4	11	5	243.10924115102
4	12	5.5	243.0663145869
4	13	6	243.01953350392
4	14	6.5	242.96903013124
4	15	7	242.91449734592
4	16	7.5	242.85595049639
4	17	8	242.79419269238
4	18	8.5	242.73295519606
4	19	9	242.26508669544
4	20	9.5	241.68610673898
4	21	10	241.10712287819
4	22	10.5	240.52771094977
4	23	11	239.94936719164
4	24	11.5	239.37215495552
4	25	12	238.79357286438
4	26	12.5	238.21557328652
4	27	13	237.63733651803
4	28	13.5	237.05823889328
4	29	14	236.48010755552
4	30	14.5	235.90121453989
4	31	15	235.80409846641
4	32	15.5	235.0742950117
4	33	16	232.5949971755
4	34	16.5	230.11229897349
4	35	17	227.62779660232
4	36	17.5	225.14764125971
4	37	18	222.66813646222
4	38	18.5	220.19162743364
4	39	19	217.70837988122
4	40	19.5	215.22731687815
4	41	20	212.75282488286
4	42	20.5	210.27264811459
4	43	21	207.79659313092
4	44	21.5	205.31452671322
4	45	22	202.83089691552
4	46	22.5	200.3480367423
4	47	23	197.87148526474
4	48	23.5	195.38814299658
4	49	24	192.90354517207
4	50	24.5	190.41885485034
4	51	25	187.93716550677
4	52	25.5	185.45432597469
4	53	26	182.97469523118
4	54	26.5	180.49361961486
4	55	27	179.61417745787
4	56	27.5	178.8559691062
4	57	28	178.09591954772
4	58	28.5	177.33738778485
4	59	29	176.57814397954
4	60	29.5	175.81934606808
4	61	30	175.05880281387
4	62	30.5	174.29889175657
4	63	31	173.54065930506
4	64	31.5	172.78142890846
4	65	32	172.02238947642
4	66	32.5	171.26402847329
4	67	33	170.50400739827
4	68	33.5	169.79079523124
4	69	34	169.44349024096
4	70	34.5	169.49539697205
4	71	35	169.59012659499
4	72	35.5	169.6847860238
4	73	36	169.7796467169
4	74	36.5	169.87425518362
4	75	37	170.12243900937
4	76	37.5	170.40556825069
4	77	38	170.68902704504
4	78	38.5	170.97228521679
4	79	39	171.25559044897
4	80	39.5	171.5390419754
4	81	40	171.82247454638
4	82	40.5	172.10592645709
5	2	0.5	2497.1688996973
5	3	1	2496.3316489356
5	4	1.5	2494.9546389403
5	5	2	2493.0872100228
5	6	2.5	2490.7697802708
5	7	3	2487.9686525557
5	8	3.5	2484.7319310447
5	9	4	2480.9973027781
5	10	4.5	2476.7781916922
5	11	5	2472.0094869528
5	12	5.5	2466.7864948306
5	13	6	2461.0945128687
5	14	6.5	2454.9496297827
5	15	7	2448.3144770721
5	16	7.5	2441.1909222081
5	17	8	2433.5380245307
5	18	8.5	2425.5499333367
5	19	9	2417.5871251784
5	20	9.5	2409.6034747697
5	21	10	2401.6197705222
5	22	10.5	2393.6301635792
5	23	11	2385.6552858138
5	24	11.5	2377.6960107926
5	25	12	2369.7178466134
5	26	12.5	2361.7477148054
5	27	13	2353.7743123379
5	28	13.5	2345.7890393818
5	29	14	2337.8170907153
5	30	14.5	2329.834639146
5	31	15	2321.8400533656
5	32	15.5	2313.9513235185
5	33	16	2306.358641657
5	34	16.5	2298.7555464059
5	35	17	2291.1469260082
5	36	17.5	2283.5516180908
5	37	18	2275.9583024252
5	38	18.5	2268.3741610982
5	39	19	2260.7693834985
5	40	19.5	2253.1712959325
5	41	20	2245.5933316341
5	42	20.5	2237.9979581023
5	43	21	2230.4152072575
5	44	21.5	2222.814046802
5	45	22	2215.2080986015
5	46	22.5	2207.6045073243
5	47	23	2200.0202360004
5	48	23.5	2192.4151683394
5	49	24	2184.8062556228
5	50	24.5	2177.1970596397
5	51	25	2169.5970539479
5	52	25.5	2161.9935258832
5	53	26	2154.399824515
5	54	26.5	2146.8016983224
5	55	27	2138.8746753475
5	56	27.5	2130.9304732559
5	57	28	2122.9669797411
5	58	28.5	2115.019389079
5	59	29	2107.0643379204
5	60	29.5	2099.1139586596
5	61	30	2091.1452923995
5	62	30.5	2083.1832500445
5	63	31	2075.2387954444
5	64	31.5	2067.2838847786
5	65	32	2059.3309749616
5	66	32.5	2051.3851734512
5	67	33	2043.4219783731
5	68	33.5	2035.4573568702
5	69	34	2027.4610729283
5	70	34.5	2019.4810722796
5	71	35	2011.4843132757
5	72	35.5	2003.4934798256
5	73	36	1995.4856563201
5	74	36.5	1987.4991249219
5	75	37	1979.6536396155
5	76	37.5	1971.6674700528
5	77	38	1963.6720048534
5	78	38.5	1955.6821985766
5	79	39	1947.6910648718
5	80	39.5	1939.6958046798
5	81	40	1931.7010791581
5	82	40.5	1923.7058081245
6	2	0.5	1630.0247913966
6	3	1	1630.0082108838
6	4	1.5	1629.9812774651
6	5	2	1629.8417228467
6	6	2.5	1629.598968075
6	7	3	1629.3054750046
6	8	3.5	1628.9658557308
6	9	4	1628.5728588598
6	10	4.5	1628.1282675097
6	11	5	1627.6355270261
6	12	5.5	1627.0910144426
6	13	6	1626.4940830157
6	14	6.5	1625.8345458684
6	15	7	1625.0961785339
6	16	7.5	1624.322276724
6	17	8	1623.6989221299
6	18	8.5	1623.0772683261
6	19	9	1622.4546982928
6	20	9.5	1621.8158716178
6	21	10	1621.1479699811
6	22	10.5	1620.4805658566
6	23	11	1619.8128705663
6	24	11.5	1619.1453593093
6	25	12	1618.477649382
6	26	12.5	1617.8102521775
6	27	13	1617.1432332682
6	28	13.5	1616.4748463017
6	29	14	1615.5620805648
6	30	14.5	1614.8538707139
6	31	15	1614.1444828574
6	32	15.5	1613.4359561502
6	33	16	1612.7275783645
6	34	16.5	1612.0191638161
6	35	17	1611.3111493622
6	36	17.5	1610.6013700862
6	37	18	1609.9844655549
6	38	18.5	1609.3916057335
6	39	19	1608.7978704775
6	40	19.5	1608.2024692262
6	41	20	1607.5996517522
6	42	20.5	1606.9399328879
6	43	21	1606.2808350986
6	44	21.5	1605.6199371605
6	45	22	1604.9601680936
6	46	22.5	1604.3006430242
6	47	23	1603.6409381006
6	48	23.5	1602.9812482408
6	49	24	1602.3200556216
6	50	24.5	1601.6594453757
6	51	25	1600.9992167008
6	52	25.5	1600.3514186537
6	53	26	1599.7119629709
6	54	26.5	1599.074586045
6	55	27	1598.4685066192
6	56	27.5	1598.2871992715
6	57	28	1600.1327301846
6	58	28.5	1604.5245775143
6	59	29	1608.8714928426
6	60	29.5	1613.2086702916
6	61	30	1617.5543518139
6	62	30.5	1621.8981999634
6	63	31	1626.2505997774
6	64	31.5	1630.5994169144
6	65	32	1634.9475009422
6	66	32.5	1639.3068751593
6	67	33	1643.6594599589
6	68	33.5	1648.0111841358
6	69	34	1652.3707087236
6	70	34.5	1656.7378211758
6	71	35	1661.1153184619
6	72	35.5	1665.4786211952
6	73	36	1669.8497660584
6	74	36.5	1674.2195324327
6	75	37	1678.5747012508
6	76	37.5	1682.9394769202
6	77	38	1687.2844451248
6	78	38.5	1691.6535222295
6	79	39	1696.007967332
6	80	39.5	1700.3603826565
6	81	40	1704.7219716228
6	82	40.5	1709.0685501357
7	2	0.5	360.29248770513
7	3	1	361.13602129091
7	4	1.5	362.5062589664
7	5	2	364.3352372963
7	6	2.5	366.71067855973
7	7	3	369.58261201344
7	8	3.5	372.90590667538
7	9	4	376.75151999667
7	10	4.5	381.10200353526
7	11	5	385.9236433683
7	12	5.5	391.25189150218
7	13	6	397.09307655133
7	14	6.5	403.44417801127
7	15	7	410.23715748917
7	16	7.5	417.44994158298
7	17	8	424.71971334238
7	18	8.5	431.96964991186
7	19	9	439.23027185909
7	20	9.5	446.49580528866
7	21	10	453.75826318469
7	22	10.5	461.01531136036
7	23	11	468.27552554011
7	24	11.5	475.5337386271
7	25	12	482.7941119615
7	26	12.5	490.05108489189
7	27	13	497.30394441355
7	28	13.5	504.57167956606
7	29	14	511.7895232439
7	30	14.5	519.03953384049
7	31	15	526.30160379037
7	32	15.5	533.55485807359
7	33	16	540.80658783298
7	34	16.5	548.05869393703
7	35	17	555.30670423526
7	36	17.5	562.57278118469
7	37	18	569.83576083463
7	38	18.5	577.08640474733
7	39	19	584.34775517788
7	40	19.5	591.61120824516
7	41	20	598.88374377042
7	42	20.5	606.13970067352
7	43	21	613.38882664684
7	44	21.5	620.65775166359
7	45	22	627.91426072363
7	46	22.5	635.16808616463
7	47	23	642.42388973851
7	48	23.5	649.67952763475
7	49	24	656.95169372018
7	50	24.5	664.21745453775
7	51	25	671.47901862208
7	52	25.5	678.73389636446
7	53	26	685.99258249253
7	54	26.5	693.2482074732
7	55	27	700.15127387363
7	56	27.5	706.0995322438
7	57	28	711.40140250884
7	58	28.5	713.50090264063
7	59	29	713.69153064582
7	60	29.5	713.86569899227
7	61	30	714.04020883795
7	62	30.5	714.21464506071
7	63	31	714.38942469377
7	64	31.5	714.56406045612
7	65	32	714.73866677936
7	66	32.5	714.91372648347
7	67	33	715.08851354383
7	68	33.5	715.26326604467
7	69	34	715.43833178747
7	70	34.5	715.61370223667
7	71	35	715.78948970977
7	72	35.5	715.96470717154
7	73	36	716.1402395498
7	74	36.5	716.31571657304
7	75	37	716.49060740042
7	76	37.5	716.66588401143
7	77	38	716.84036521148
7	78	38.5	717.01581455581
7	79	39	717.19067632034
7	80	39.5	717.36545657553
7	81	40	717.54060521815
7	82	40.5	717.71515108366
8	3	1	0.96315724250003
8	4	1.5	1.4163082134939
8	5	2	1.8730117260368
8	6	2.5	2.3571391038766
8	7	3	2.8579845126981
8	8	3.5	3.226170594006
8	9	4	3.6683751018142
8	10	4.5	4.096395278115
8	11	5	4.5673459860759
8	12	5.5	5.0041966364236
8	13	6	5.4528541425599
8	14	6.5	5.8326756184112
8	15	7	6.3185249040166
8	16	7.5	6.8164614663955
8	17	8	7.2483342648793
8	18	8.5	7.6306189449347
8	19	9	8.0300661469979
8	20	9.5	8.4971491859045
8	21	10	8.9360353771627
8	22	10.5	9.3978944510204
8	23	11	9.8634379853105
8	24	11.5	10.317759716001
8	25	12	10.714327577011
8	26	12.5	11.151482744485
8	27	13	11.636657540172
8	28	13.5	12.128458942918
8	29	14	12.574270750012
8	30	14.5	13.063242460064
8	31	15	13.48613080303
8	32	15.5	13.890868600824
8	33	16	14.428135147968
8	34	16.5	14.888480121305
8	35	17	15.285900480401
8	36	17.5	15.704661329704
8	37	18	16.182874826592
8	38	18.5	16.576163220711
8	39	19	17.04590348
8	40	19.5	17.511949481893
8	41	20	17.948874973443
8	42	20.5	18.398306984392
8	43	21	18.875087373511
8	44	21.5	19.375399535641
8	45	22	19.816389375537
8	46	22.5	20.27372128587
8	47	23	20.748558687948
8	48	23.5	21.214605076791
8	49	24	21.723559591782
8	50	24.5	22.158030788045
8	51	25	22.180865816828
8	52	25.5	22.164680755404
8	53	26	22.164840675383
8	54	26.5	22.218768838248
8	55	27	22.171807797495
8	56	27.5	22.215426433589
8	57	28	22.199853998441
8	58	28.5	22.167198591596
8	59	29	22.16194917758
8	60	29.5	22.206758969524
8	61	30	22.178201122959
8	62	30.5	22.214963697381
8	63	31	22.198859407622
8	64	31.5	22.2038517011
8	65	32	22.186262325868
8	66	32.5	22.202624620232
8	67	33	22.219863656233
8	68	33.5	22.167788052191
8	69	34	22.202800164078
8	70	34.5	22.217187748034
8	71	35	22.195973929828
8	72	35.5	22.211866106712
8	73	36	22.170279956269
8	74	36.5	22.163523615594
8	75	37	22.168545345282
8	76	37.5	22.167798402975
8	77	38	22.186826498653
8	78	38.5	22.193691120511
8	79	39	22.185229519703
8	80	39.5	22.177593529359
8	81	40	22.19146439536
8	82	40.5	22.162687323107
9	3	1	2.0116060111359
9	4	1.5	3.0081261322249
9	5	2	3.9596735773885
9	6	2.5	4.9147222280081
9	7	3	5.889326381562
9	8	3.5	6.8788821249406
9	9	4	7.7938837797867
9	10	4.5	8.7023372510245
9	11	5	8.6754488682753
9	12	5.5	8.6928926480847
9	13	6	8.6739304756915
9	14	6.5	8.6486439504597
9	15	7	8.6071240203461
9	16	7.5	8.6096484815405
9	17	8	8.6765494632844
9	18	8.5	8.691906216222
9	19	9	8.6895699835668
9	20	9.5	8.6917188767746
9	21	10	8.6876668885426
9	22	10.5	8.6548053989519
9	23	11	8.6498789012043
9	24	11.5	9.3105579491106
9	25	12	10.306217582808
9	26	12.5	11.226979594259
9	27	13	12.140981362973
9	28	13.5	13.117551298785
9	29	14	13.969481934591
9	30	14.5	13.8435789962
9	31	15	11.61471192603
9	32	15.5	10.5303115453
9	33	16	8.727996280003
9	34	16.5	8.6786673143745
9	35	17	8.6113086891018
9	36	17.5	8.6799250831228
9	37	18	8.7312646191504
9	38	18.5	8.6191957829014
9	39	19	8.6255628256739
9	40	19.5	8.640095662757
9	41	20	8.7224545112398
9	42	20.5	8.7102991879225
9	43	21	8.6680538501061
9	44	21.5	8.687159623318
9	45	22	8.6143776310661
9	46	22.5	8.701649005111
9	47	23	8.694289473822
9	48	23.5	8.6238870165713
9	49	24	8.6729226478452
9	50	24.5	8.6525806385588
9	51	25	8.6307179475512
9	52	25.5	8.6969431934116
9	53	26	8.6335482753773
9	54	26.5	6.8635875598246
9	55	27	7.4535875598246
9	56	27.5	8.6192236613829
9	57	28	9.7195325001443
9	58	28.5	10.723088909916
9	59	29	11.642868467171
9	60	29.5	12.546221441766
9	61	30	13.645800116907
9	62	30.5	14.559675122629
9	63	31	14.495002092735
9	64	31.5	14.541947132022
9	65	32	14.435276740821
9	66	32.5	14.540433851882
9	67	33	14.548035021111
9	68	33.5	14.47648254187
9	69	34	14.488430435123
9	70	34.5	14.498726023423
9	71	35	14.506795355849
9	72	35.5	14.456248789478
9	73	36	14.534164740203
9	74	36.5	14.453060064965
9	75	37	14.550677891778
9	76	37.5	14.437574530322
9	77	38	14.500435655181
9	78	38.5	14.486342127523
9	79	39	14.5276124709
9	80	39.5	14.533853154012
9	81	40	14.481712085273
9	82	40.5	14.444666899104
10	3	1	2.1311671961367
10	4	1.5	3.1435446060073
10	5	2	4.0758362758249
10	6	2.5	4.9786327199658
10	7	3	5.9862471878199
10	8	3.5	6.8543556765883
10	9	4	7.8430037378912
10	10	4.5	8.8951558063409
10	11	5	9.8639746389535
10	12	5.5	10.884495384309
10	13	6	11.750328246459
10	14	6.5	12.627083729126
10	15	7	13.680306829451
10	16	7.5	14.66311544073
10	17	8	15.631815495721
10	18	8.5	15.944889718909
10	19	9	15.933076143798
10	20	9.5	16.02704194391
10	21	10	16.012680860139
10	22	10.5	16.046975723119
10	23	11	15.991224413538
10	24	11.5	15.957330957596
10	25	12	16.006943297596
10	26	12.5	16.009157720807
10	27	13	15.938132288733
10	28	13.5	15.992241283309
10	29	14	16.031916167154
10	30	14.5	15.994183716753
10	31	15	16.050449797989
10	32	15.5	15.941528713664
10	33	16	16.035602408029
10	34	16.5	15.973466740693
10	35	17	16.029840288526
10	36	17.5	15.964652343749
10	37	18	16.008472060718
10	38	18.5	15.930056551905
10	39	19	16.034577265534
10	40	19.5	15.948862201169
10	41	20	15.927917716687
10	42	20.5	16.009976792937
10	43	21	15.924553301391
10	44	21.5	15.971704688843
10	45	22	15.946442086124
10	46	22.5	16.03932738042
10	47	23	15.927726235763
10	48	23.5	15.9891791369
10	49	24	15.975600421213
10	50	24.5	16.029597706406
10	51	25	15.938564928819
10	52	25.5	16.017461132803
10	53	26	15.986677580064
10	54	26.5	15.991367802329
10	55	27	15.941091452837
10	56	27.5	15.935278603801
10	57	28	15.940887910151
10	58	28.5	16.015791453997
10	59	29	16.044431088586
10	60	29.5	15.951873005662
10	61	30	16.049907877285
10	62	30.5	15.949109528975
10	63	31	15.976399861407
10	64	31.5	16.039754499081
10	65	32	15.938170450274
10	66	32.5	16.040572454352
10	67	33	15.990110049562
10	68	33.5	16.007202510792
10	69	34	16.044637274847
10	70	34.5	15.966868247155
10	71	35	15.996379570738
10	72	35.5	15.960602580668
10	73	36	15.972599685637
10	74	36.5	15.933823426839
10	75	37	15.944410204946
10	76	37.5	15.951852494351
10	77	38	16.025625474553
10	78	38.5	16.007644835604
10	79	39	15.980006347718
10	80	39.5	16.047505428088
10	81	40	16.038682358186
10	82	40.5	16.017372143357
11	3	1	2.1601955810489
11	4	1.5	3.1144628968242
11	5	2	4.1105820955232
11	6	2.5	5.2289444127435
11	7	3	6.0858094900696
11	8	3.5	7.0473769874488
11	9	4	8.1433097840416
11	10	4.5	9.173221089911
11	11	5	10.05867896536
11	12	5.5	11.148680243594
11	13	6	12.171584089579
11	14	6.5	13.106705217048
11	15	7	13.99409036707
11	16	7.5	14.543085340356
11	17	8	14.602687780525
11	18	8.5	14.517289030695
11	19	9	14.570008487972
11	20	9.5	14.575677133071
11	21	10	14.560443590894
11	22	10.5	14.61913622578
11	23	11	14.54825024424
11	24	11.5	14.519225431246
11	25	12	14.543037858788
11	26	12.5	14.612220510697
11	27	13	14.538531441971
11	28	13.5	14.588886783152
11	29	14	14.586384882714
11	30	14.5	14.525227403968
11	31	15	14.635057979818
11	32	15.5	14.556876347599
11	33	16	14.55173467303
11	34	16.5	14.521861440282
11	35	17	14.524333486348
11	36	17.5	14.61959528806
11	37	18	14.517940223239
11	38	18.5	14.534069228821
11	39	19	14.557720358247
11	40	19.5	14.618730225999
11	41	20	14.640260186026
11	42	20.5	14.559702563066
11	43	21	14.570991012117
11	44	21.5	14.576682747238
11	45	22	14.547124937753
11	46	22.5	14.542483149316
11	47	23	14.608776330758
11	48	23.5	14.563148345725
11	49	24	14.584590232608
11	50	24.5	14.596463933828
11	51	25	14.632218628198
11	52	25.5	14.640536238936
11	53	26	14.56424671979
11	54	26.5	14.59985831915
11	55	27	12.99679047554
11	56	27.5	11.634470266352
11	57	28	11.410184876751
11	58	28.5	9.1768068300144
11	59	29	8.6692932682091
11	60	29.5	8.6545815453751
11	61	30	8.7020650549073
11	62	30.5	8.6871573199102
11	63	31	8.6874157221059
11	64	31.5	8.6518976251481
11	65	32	8.7110292333926
11	66	32.5	8.774150936534
11	67	33	8.7104188366423
11	68	33.5	8.6722553810503
11	69	34	8.7317063623786
11	70	34.5	8.6881515744424
11	71	35	8.7715638518802
11	72	35.5	8.7794007455933
11	73	36	8.7632931033967
11	74	36.5	8.7074452181233
11	75	37	8.693996891219
11	76	37.5	8.7769655293066
11	77	38	8.6914618702515
11	78	38.5	8.7105710856596
11	79	39	8.6624263996587
11	80	39.5	8.6731065072774
11	81	40	8.6904158540469
11	82	40.5	8.6650666580468
12	4	1.5	0.90630194198784
12	5	2	0.91340702508576
12	6	2.5	0.96825475567952
12	7	3	1.001690817643
12	8	3.5	0.73637216261588
12	9	4	0.8844090156164
12	10	4.5	0.85604035260156
12	11	5	0.94190141592175
12	12	5.5	0.87370130069554
12	13	6	0.89731501227245
12	14	6.5	0.7596429517027
12	15	7	0.97169857121073
12	16	7.5	0.99587312475778
12	17	8	0.86374559696764
12	18	8.5	0.76456936011091
12	19	9	0.79889440412633
12	20	9.5	0.93416607781313
12	21	10	0.87777238251641
12	22	10.5	0.92371814771554
12	23	11	0.93108706858008
12	24	11.5	0.90864346138201
12	25	12	0.79313572201877
12	26	12.5	0.87431033494881
12	27	13	0.97034959137439
12	28	13.5	0.98360280549153
12	29	14	0.89162361418827
12	30	14.5	0.97794342010281
12	31	15	0.84577668593264
12	32	15.5	0.80947559558786
12	33	16	1.0745330942888
12	34	16.5	0.9206899466738
12	35	17	0.79484071819111
12	36	17.5	0.83752169860526
12	37	18	0.95642699377611
12	38	18.5	0.78657678823919
12	39	19	0.93948051857763
12	40	19.5	0.93209200378508
12	41	20	0.87385098310188
12	42	20.5	0.89886402189732
12	43	21	0.95356077823789
12	44	21.5	1.0006243242603
12	45	22	0.88197967979127
12	46	22.5	0.91466382066721
12	47	23	0.94967480415479
12	48	23.5	0.93209277768621
12	49	24	1.017909029983
12	50	24.5	0.86894239252434
12	51	25	0.045670057566518
12	52	25.5	-0.032370122848079
12	53	26	0.00031983995810236
12	54	26.5	0.10785632573068
12	55	27	-0.093922081505873
12	56	27.5	0.087237272188062
12	57	28	-0.031144870296117
12	58	28.5	-0.065310813691468
12	59	29	-0.010498828031125
12	60	29.5	0.089619583887981
12	61	30	-0.057115693129596
12	62	30.5	0.073525148844347
12	63	31	-0.032208579517906
12	64	31.5	0.00998458695598
12	65	32	-0.035178750464688
12	66	32.5	0.032724588727575
12	67	33	0.034478072002528
12	68	33.5	-0.10415120808408
12	69	34	0.070024223774674
12	70	34.5	0.028775167912244
12	71	35	-0.042427636412903
12	72	35.5	0.031784353768451
12	73	36	-0.083172300886361
12	74	36.5	-0.013512681350115
12	75	37	0.01004345937632
12	76	37.5	-0.0014938846137369
12	77	38	0.03805619135499
12	78	38.5	0.013729243716227
12	79	39	-0.016923201614993
12	80	39.5	-0.01527198068797
12	81	40	0.027741732001303
12	82	40.5	-0.05755414450541
13	4	1.5	1.4879334530051
13	5	2	1.6132692118776
13	6	2.5	1.774955217919
13	7	3	1.9399645462544
13	8	3.5	1.8412670129931
13	9	4	2.0734096271212
13	10	4.5	2.1590699722102
13	11	5	2.3759099330688
13	12	5.5	2.4166726257484
13	13	6	2.5672189760482
13	14	6.5	2.4775098225192
13	15	7	2.917777159353
13	16	7.5	3.1040721566467
13	17	8	3.0036717065378
13	18	8.5	2.9251724004981
13	19	9	3.0912608129898
13	20	9.5	3.4895749885006
13	21	10	3.4973498690651
13	22	10.5	3.7321536620711
13	23	11	3.8877343570021
13	24	11.5	3.9686114283298
13	25	12	3.7884802178906
13	26	12.5	4.125769287589
13	27	13	4.5381993626689
13	28	13.5	4.7349194209254
13	29	14	4.6022211168677
13	30	14.5	5.0249056725594
13	31	15	4.7360653077296
13	32	15.5	4.7375822630564
13	33	16	5.8198207003021
13	34	16.5	5.436646094345
13	35	17	5.1054553725593
13	36	17.5	5.3952794666825
13	37	18	6.0123039844926
13	38	18.5	5.4726451858172
13	39	19	6.2492831936675
13	40	19.5	6.3846666731497
13	41	20	6.2900284828632
13	42	20.5	6.5584059619124
13	43	21	6.979394747501
13	44	21.5	7.3889868488056
13	45	22	6.9969201746262
13	46	22.5	7.3268128966839
13	47	23	7.6848236919857
13	48	23.5	7.7809399716037
13	49	24	8.4341171123639
13	50	24.5	7.8241302729532
13	51	25	3.4322488973582
13	52	25.5	3.0122184874303
13	53	26	3.186867571593
13	54	26.5	3.7726616397231
13	55	27	2.6845802681854
13	56	27.5	3.6615635820428
13	57	28	3.024992586619
13	58	28.5	2.8366842640672
13	59	29	3.1285514041701
13	60	29.5	3.6725279413924
13	61	30	2.8823434043574
13	62	30.5	3.5880561904034
13	63	31	3.0191254708464
13	64	31.5	3.2457905438584
13	65	32	3.0010149873039
13	66	32.5	3.3672386895244
13	67	33	3.3799531015792
13	68	33.5	2.6292813398718
13	69	34	3.5668582032497
13	70	34.5	3.348900384219
13	71	35	2.9639505719801
13	72	35.5	3.3639873125314
13	73	36	2.7417694941054
13	74	36.5	3.1127394693344
13	75	37	3.2395006499856
13	76	37.5	3.1777235201955
13	77	38	3.3927034619221
13	78	38.5	3.2639172978825
13	79	39	3.0984388906559
13	80	39.5	3.1058859110401
13	81	40	3.3384393712484
13	82	40.5	2.8773534054774
14	4	1.5	1.9930402421779
14	5	2	1.9030948903272
14	6	2.5	1.9100973012391
14	7	3	1.9492083071079
14	8	3.5	1.9791114867572
14	9	4	1.8300033096923
14	10	4.5	1.8169069424755
14	11	5	-0.053776765498334
14	12	5.5	0.034887559618802
14	13	6	-0.037924344786443
14	14	6.5	-0.050573050463573
14	15	7	-0.083039860227146
14	16	7.5	0.0050489223888164
14	17	8	0.13380196348764
14	18	8.5	0.030713505875319
14	19	9	-0.0046724653104313
14	20	9.5	0.004297786415556
14	21	10	-0.0081039764639002
14	22	10.5	-0.065722979181448
14	23	11	-0.0098529954953115
14	24	11.5	1.3213580958126
14	25	12	1.9913192673959
14	26	12.5	1.8415240229014
14	27	13	1.8280035374267
14	28	13.5	1.9531398716243
14	29	14	1.7038612716133
14	30	14.5	-0.25180587678362
14	31	15	-4.4577341403393
14	32	15.5	-2.1688007614607
14	33	16	-3.604630530593
14	34	16.5	-0.098657931257041
14	35	17	-0.13471725054551
14	36	17.5	0.13723278804217
14	37	18	0.10267907205504
14	38	18.5	-0.22413767249789
14	39	19	0.012734085544945
14	40	19.5	0.029065674166194
14	41	20	0.16471769696567
14	42	20.5	-0.02431064663455
14	43	21	-0.084490675632843
14	44	21.5	0.038211546423845
14	45	22	-0.14556398450397
14	46	22.5	0.17454274808988
14	47	23	-0.014719062577932
14	48	23.5	-0.1408049145015
14	49	24	0.098071262547748
14	50	24.5	-0.040684018572794
14	51	25	-0.043725382015108
14	52	25.5	0.13245049172081
14	53	26	-0.12678983606864
14	54	26.5	-3.5399214311055
14	55	27	1.18
14	56	27.5	2.3312722031167
14	57	28	2.2006176775228
14	58	28.5	2.0071128195431
14	59	29	1.8395591145102
14	60	29.5	1.8067059491901
14	61	30	2.1991573502822
14	62	30.5	1.8277500114438
14	63	31	-0.12934605978895
14	64	31.5	0.093890078575349
14	65	32	-0.21334078240208
14	66	32.5	0.21031422212254
14	67	33	0.015202338458039
14	68	33.5	-0.14310495848302
14	69	34	0.023895786507055
14	70	34.5	0.020591176599265
14	71	35	0.016138664851898
14	72	35.5	-0.10109313274268
14	73	36	0.15583190144971
14	74	36.5	-0.16220935047604
14	75	37	0.19523565362673
14	76	37.5	-0.22620672291145
14	77	38	0.12572224971839
14	78	38.5	-0.028187055317687
14	79	39	0.082540686754509
14	80	39.5	0.012481366223657
14	81	40	-0.10428213747684
14	82	40.5	-0.07409037233796
15	4	1.5	2.7024978186224
15	5	2	3.1228378106583
15	6	2.5	3.6204637772488
15	7	3	4.1795362644611
15	8	3.5	4.7528987655501
15	9	4	4.9670552711745
15	10	4.5	5.4012137681428
15	11	5	1.4763863221932
15	12	5.5	1.6631169338868
15	13	6	1.5094392617643
15	14	6.5	1.4815608496612
15	15	7	1.4118609613406
15	16	7.5	1.5947617075035
15	17	8	1.8686843153561
15	18	8.5	1.6542968023021
15	19	9	1.5800130897105
15	20	9.5	1.5989493362405
15	21	10	1.5726989615504
15	22	10.5	1.4503109526041
15	23	11	1.5665168497934
15	24	11.5	4.5986223214663
15	25	12	6.6543354336105
15	26	12.5	6.7649307342819
15	27	13	7.2096996505112
15	28	13.5	8.1258220546014
15	29	14	7.7720176419972
15	30	14.5	1.1827992916936
15	31	15	0.973
15	32	15.5	0.973
15	33	16	0.973
15	34	16.5	1.3826954261668
15	35	17	1.304817640411
15	36	17.5	1.8762032725321
15	37	18	1.8087470297667
15	38	18.5	0.973
15	39	19	1.6118519283161
15	40	19.5	1.6469044146001
15	41	20	1.9383301795746
15	42	20.5	1.540200424566
15	43	21	1.4118099234401
15	44	21.5	1.6696313039536
15	45	22	1.2824106146412
15	46	22.5	1.9566670594839
15	47	23	1.559283384157
15	48	23.5	1.2926225771186
15	49	24	1.7936333750039
15	50	24.5	1.5024057383261
15	51	25	1.4947869259891
15	52	25.5	1.8679195817618
15	53	26	1.3221211084191
15	54	26.5	0.973
15	55	27	3.6274655817341
15	56	27.5	6.4275397243869
15	57	28	6.8184352928874
15	58	28.5	6.9280943490295
15	59	29	6.9791268426375
15	60	29.5	7.3604933744918
15	61	30	9.235236049927
15	62	30.5	8.510837345301
15	63	31	1.6387323372405
15	64	31.5	2.4246313835492
15	65	32	1.3420402189006
15	66	32.5	2.8324141351834
15	67	33	2.1495345190754
15	68	33.5	1.5893367870315
15	69	34	2.1733140479828
15	70	34.5	2.162922425443
15	71	35	2.1482555025508
15	72	35.5	1.7342523722028
15	73	36	2.6405897277459
15	74	36.5	1.5211123520297
15	75	37	2.7811519725819
15	76	37.5	1.2973991722267
15	77	38	2.5305045661397
15	78	38.5	1.9912477542303
15	79	39	2.3830402828993
15	80	39.5	2.1384367678193
15	81	40	1.7252077799887
15	82	40.5	1.8273066437855
16	4	1.5	2.0247548197413
16	5	2	1.8645833396353
16	6	2.5	1.8055928882817
16	7	3	2.0152289357083
16	8	3.5	1.7362169775367
16	9	4	1.9772961226059
16	10	4.5	2.1043041368993
16	11	5	1.9376376652252
16	12	5.5	2.0410414907103
16	13	6	1.7316657243017
16	14	6.5	1.7535109653324
16	15	7	2.1064462006511
16	16	7.5	1.9656172225578
16	17	8	1.9374001099821
16	18	8.5	0.62614844637606
16	19	9	-0.023627150221728
16	20	9.5	0.18793160022236
16	21	10	-0.028722167541275
16	22	10.5	0.068589725960045
16	23	11	-0.1115026191622
16	24	11.5	-0.067786911884323
16	25	12	0.099224680000916
16	26	12.5	0.0044288464216535
16	27	13	-0.14205086414702
16	28	13.5	0.10821798915043
16	29	14	0.079349767691454
16	30	14.5	-0.075464900801887
16	31	15	0.11253216247075
16	32	15.5	-0.21784216864966
16	33	16	0.18814738872926
16	34	16.5	-0.12427133467048
16	35	17	0.11274709566496
16	36	17.5	-0.13037588955369
16	37	18	0.087639433937149
16	38	18.5	-0.15683101762552
16	39	19	0.20904142725747
16	40	19.5	-0.17143012872897
16	41	20	-0.041888968963178
16	42	20.5	0.16411815249827
16	43	21	-0.17084698309191
16	44	21.5	0.094302774905227
16	45	22	-0.050525205438024
16	46	22.5	0.18577058859169
16	47	23	-0.22320228931494
16	48	23.5	0.12290580227506
16	49	24	-0.027157431375237
16	50	24.5	0.10799457038753
16	51	25	-0.1820655551739
16	52	25.5	0.15779240796808
16	53	26	-0.061567105478609
16	54	26.5	0.0093804445303967
16	55	27	-0.10055269898381
16	56	27.5	-0.011625698073765
16	57	28	0.011218612701629
16	58	28.5	0.14980708769057
16	59	29	0.057279269178402
16	60	29.5	-0.18511616584845
16	61	30	0.19606974324677
16	62	30.5	-0.20159669661894
16	63	31	0.054580664862879
16	64	31.5	0.12670927534812
16	65	32	-0.20316809761338
16	66	32.5	0.20480400815606
16	67	33	-0.10092480957974
16	68	33.5	0.034184922459534
16	69	34	0.074869528110142
16	70	34.5	-0.15553805538453
16	71	35	0.059022647165694
16	72	35.5	-0.071553980140017
16	73	36	0.023994209938682
16	74	36.5	-0.077552517596629
16	75	37	0.021173556214197
16	76	37.5	0.014884578809141
16	77	38	0.14754596040584
16	78	38.5	-0.035961277899332
16	79	39	-0.055276975771413
16	80	39.5	0.13499816074036
16	81	40	-0.01764613980427
16	82	40.5	-0.042620429657404
17	4	1.5	2.7984568684538
17	5	2	3.1444097541456
17	6	2.5	3.5280106963949
17	7	3	4.3259352163484
17	8	3.5	4.3384594692947
17	9	4	5.2703279254748
17	10	4.5	6.1151855528723
17	11	5	6.2806852194509
17	12	5.5	7.1081769084565
17	13	6	6.7304899914031
17	14	6.5	7.2412740892781
17	15	7	8.9513099409504
17	16	7.5	9.0547083895803
17	17	8	9.5156421158074
17	18	8.5	4.6597810862715
17	19	9	2.1615420551011
17	20	9.5	2.9893392055865
17	21	10	2.1508955436355
17	22	10.5	2.5310910794497
17	23	11	1.8294600174731
17	24	11.5	1.9944571009003
17	25	12	2.6438280591366
17	26	12.5	2.2784031518175
17	27	13	1.7072368803552
17	28	13.5	2.6763856360336
17	29	14	2.5706154503682
17	30	14.5	1.9686439407229
17	31	15	2.7015403788886
17	32	15.5	1.4163403560233
17	33	16	2.9915835300722
17	34	16.5	1.7786689819263
17	35	17	2.6993480398884
17	36	17.5	1.7543976624049
17	37	18	2.599350566667
17	38	18.5	1.6498124028048
17	39	19	3.0721560686166
17	40	19.5	1.5952186805004
17	41	20	2.090859451362
17	42	20.5	2.8946476406373
17	43	21	1.5955773137956
17	44	21.5	2.6198434412076
17	45	22	2.0596801512887
17	46	22.5	2.9830101723249
17	47	23	1.394852632666
17	48	23.5	2.7325389619537
17	49	24	2.1527590572988
17	50	24.5	2.6809528343535
17	51	25	1.5535692012185
17	52	25.5	2.8714179211643
17	53	26	2.0214317352524
17	54	26.5	2.2953468566745
17	55	27	1.8669144647108
17	56	27.5	2.2078811380704
17	57	28	2.2962931261129
17	58	28.5	2.8403333913287
17	59	29	2.4870104636654
17	60	29.5	1.542837195467
17	61	30	3.0245865350905
17	62	30.5	1.4792855239854
17	63	31	2.4675661406151
17	64	31.5	2.7547740711531
17	65	32	1.4724827522418
17	66	32.5	3.0567937273257
17	67	33	1.8701200591093
17	68	33.5	2.3929589674184
17	69	34	2.5550552333022
17	70	34.5	1.6577670743298
17	71	35	2.4873322713943
17	72	35.5	1.9803023516997
17	73	36	2.3493246872899
17	74	36.5	1.9545502412928
17	75	37	2.334973567115
17	76	37.5	2.3117178275866
17	77	38	2.8331294574493
17	78	38.5	2.122402373706
17	79	39	2.0449610131449
17	80	39.5	2.7879944136634
17	81	40	2.1966329459436
17	82	40.5	2.097772949325
18	4	1.5	1.9085346315506
18	5	2	1.992238397398
18	6	2.5	2.2367246344406
18	7	3	1.7137301546521
18	8	3.5	1.9231349947583
18	9	4	2.1918655931856
18	10	4.5	2.0598226117389
18	11	5	1.7709157508984
18	12	5.5	2.1800025564665
18	13	6	2.0458076919708
18	14	6.5	1.8702422549389
18	15	7	1.7747703000437
18	16	7.5	1.0979899465706
18	17	8	0.11920488033909
18	18	8.5	-0.1707974996604
18	19	9	0.10543891455512
18	20	9.5	0.011337290196682
18	21	10	-0.03046708435286
18	22	10.5	0.11738526977133
18	23	11	-0.14177196308039
18	24	11.5	-0.058049625987184
18	25	12	0.047624855083413
18	26	12.5	0.13836530381814
18	27	13	-0.1473781374516
18	28	13.5	0.10071068236138
18	29	14	-0.0050038008764375
18	30	14.5	-0.12231495749205
18	31	15	0.21966115170159
18	32	15.5	-0.1563632644387
18	33	16	-0.010283349137751
18	34	16.5	-0.059746465496719
18	35	17	0.0049440921330834
18	36	17.5	0.1905236034235
18	37	18	-0.20331012964249
18	38	18.5	0.032258011163211
18	39	19	0.04730225885287
18	40	19.5	0.12201973550487
18	41	20	0.043059920053931
18	42	20.5	-0.16111524592154
18	43	21	0.02257689810358
18	44	21.5	0.011383470240983
18	45	22	-0.059115618970246
18	46	22.5	-0.0092835768731305
18	47	23	0.13258636288345
18	48	23.5	-0.091255970066413
18	49	24	0.042883773767389
18	50	24.5	0.023747402438893
18	51	25	0.071509388741106
18	52	25.5	0.016635221475738
18	53	26	-0.15257903829217
18	54	26.5	0.071223198720254
18	55	27	-3.2061356872211
18	56	27.5	-2.7246404183749
18	57	28	-0.44857077920181
18	58	28.5	-4.4667560934741
18	59	29	-1.0150271236105
18	60	29.5	-0.029423445668073
18	61	30	0.094967019064352
18	62	30.5	-0.029815469994212
18	63	31	0.0005168043915198
18	64	31.5	-0.071036193915642
18	65	32	0.11826321648899
18	66	32.5	0.12624340628274
18	67	33	-0.12746419978328
18	68	33.5	-0.076326911184005
18	69	34	0.11890196265653
18	70	34.5	-0.087109575872308
18	71	35	0.16682455487549
18	72	35.5	0.015673787426202
18	73	36	-0.032215284393168
18	74	36.5	-0.1116957705468
18	75	37	-0.026896653808652
18	76	37.5	0.16593727617525
18	77	38	-0.17100731811021
18	78	38.5	0.038218430816197
18	79	39	-0.096289372001777
18	80	39.5	0.021360215237365
18	81	40	0.034618693538942
18	82	40.5	-0.050698392000051
19	4	1.5	2.6955509797744
19	5	2	3.2883222870959
19	6	2.5	4.1941174165164
19	7	3	3.9378955968766
19	8	3.5	4.7485859616822
19	9	4	5.8543376733074
19	10	4.5	6.1775693704071
19	11	5	5.9821959196403
19	12	5.5	7.6331225865915
19	13	6	7.8648074258527
19	14	6.5	7.8578267025772
19	15	7	8.0237890237147
19	16	7.5	5.9440318831241
19	17	8	2.5215996125295
19	18	8.5	1.4953876673367
19	19	9	2.4688200096947
19	20	9.5	2.1390167677352
19	21	10	1.9906499519467
19	22	10.5	2.5174278850781
19	23	11	1.5991862716072
19	24	11.5	1.8900343297916
19	25	12	2.2626189159963
19	26	12.5	2.5903713434874
19	27	13	1.5788369743138
19	28	13.5	2.4546984039898
19	29	14	2.0827493340562
19	30	14.5	1.6656247718062
19	31	15	2.8803224823279
19	32	15.5	1.548624634225
19	33	16	2.0605661097107
19	34	16.5	1.8843400980098
19	35	17	2.1110087781763
19	36	17.5	2.7751801418524
19	37	18	1.3816743553884
19	38	18.5	2.2077323560374
19	39	19	2.2632253942785
19	40	19.5	2.5337005185544
19	41	20	2.2580551344857
19	42	20.5	1.532146301247
19	43	21	2.1779711921462
19	44	21.5	2.1392894682009
19	45	22	1.8888857655703
19	46	22.5	2.0631041083883
19	47	23	2.5695405861684
19	48	23.5	1.7775676241955
19	49	24	2.2508784945035
19	50	24.5	2.1849575905697
19	51	25	2.3574295489482
19	52	25.5	2.1648516205751
19	53	26	1.5624180619725
19	54	26.5	2.3523879488619
19	55	27	0.973
19	56	27.5	0.973
19	57	28	0.973
19	58	28.5	0.973
19	59	29	0.973
19	60	29.5	1.5260109554556
19	61	30	1.7898273276056
19	62	30.5	1.527209427586
19	63	31	1.590731128338
19	64	31.5	1.4390777730465
19	65	32	1.8395603026555
19	66	32.5	1.8626160976145
19	67	33	1.3236669439713
19	68	33.5	1.4290769606018
19	69	34	1.8429271017079
19	70	34.5	1.4073060928228
19	71	35	1.9481437976293
19	72	35.5	1.6291940131281
19	73	36	1.5268731901682
19	74	36.5	1.3566422974835
19	75	37	1.5337490411455
19	76	37.5	1.946859983186
19	77	38	1.2317298021474
19	78	38.5	1.6714816827934
19	79	39	1.3869044534394
19	80	39.5	1.6333075596172
19	81	40	1.6623616634409
19	82	40.5	1.4822322533088
20	7	3	1287.3559671473
20	8	3.5	1287.3811776978
20	9	4	1287.429289688
20	10	4.5	1287.4986014391
20	11	5	1287.5876593265
20	12	5.5	1287.6989236316
20	13	6	1287.8289786264
20	14	6.5	1287.9773356656
20	15	7	1288.1456839783
20	16	7.5	1288.3232427641
20	17	8	1288.50096557
20	18	8.5	1288.6786560022
20	19	9	1288.8562593891
20	20	9.5	1289.0342826184
20	21	10	1289.211768436
20	22	10.5	1289.3894451716
20	23	11	1289.5671715795
20	24	11.5	1289.7453252715
20	25	12	1289.923181164
20	26	12.5	1290.1011073045
20	27	13	1290.2786190732
20	28	13.5	1290.4555619293
20	29	14	1290.7643331495
20	30	14.5	1294.6385489546
20	31	15	1299.583718733
20	32	15.5	1304.0540757567
20	33	16	1307.5000706376
20	34	16.5	1307.8180997712
20	35	17	1305.9971665662
20	36	17.5	1301.3149925426
20	37	18	1296.9520803428
20	38	18.5	1293.3391100906
20	39	19	1292.3512898867
20	40	19.5	1292.5048263583
20	41	20	1292.6580338186
20	42	20.5	1292.8115754686
20	43	21	1292.9645246154
20	44	21.5	1293.1173784909
20	45	22	1293.2710696129
20	46	22.5	1293.4250487536
20	47	23	1293.5782667216
20	48	23.5	1293.7314100085
20	49	24	1293.8850084872
20	50	24.5	1294.0387336586
20	51	25	1294.1922177309
20	52	25.5	1294.345462665
20	53	26	1294.4988617273
20	54	26.5	1294.652153533
20	55	27	1294.8058326959
20	56	27.5	1294.9589505611
20	57	28	1295.1128597823
20	58	28.5	1295.2656915284
20	59	29	1295.4189219684
20	60	29.5	1295.5655449128
20	61	30	1295.6835957059
20	62	30.5	1295.8131581554
20	63	31	1295.9513056867
20	64	31.5	1296.102072429
20	65	32	1296.2526085891
20	66	32.5	1296.4190575763
20	67	33	1296.5998719394
20	68	33.5	1296.7728203677
20	69	34	1296.9195629535
20	70	34.5	1297.0131586035
20	71	35	1297.1063747761
20	72	35.5	1297.1996764358
20	73	36	1297.2929482287
20	74	36.5	1297.2615960287
20	75	37	1296.912794034
20	76	37.5	1296.4530891735
20	77	38	1295.9913606286
20	78	38.5	1295.5496080767
20	79	39	1295.1137640083
20	80	39.5	1294.7363926041
20	81	40	1294.4693949383
20	82	40.5	1294.4078200116
21	7	3	1828.399858525
21	8	3.5	1827.796331021
21	9	4	1826.6445549326
21	10	4.5	1824.9852675684
21	11	5	1822.8532679407
21	12	5.5	1820.1896581929
21	13	6	1817.0762090785
21	14	6.5	1813.5246185185
21	15	7	1809.4944472387
21	16	7.5	1805.2437820146
21	17	8	1800.9891902301
21	18	8.5	1796.7353734598
21	19	9	1792.4836405031
21	20	9.5	1788.2218567403
21	21	10	1783.9729383336
21	22	10.5	1779.7194494521
21	23	11	1775.4647714393
21	24	11.5	1771.1998644648
21	25	12	1766.9420866584
21	26	12.5	1762.6826271536
21	27	13	1758.4330874877
21	28	13.5	1754.1971673016
21	29	14	1749.9731385587
21	30	14.5	1748.606588454
21	31	15	1749.1446187012
21	32	15.5	1747.585689446
21	33	16	1742.7393989861
21	34	16.5	1736.757306505
21	35	17	1730.5985575225
21	36	17.5	1726.3788204398
21	37	18	1722.3970974721
21	38	18.5	1718.3994427938
21	39	19	1714.2207422815
21	40	19.5	1709.9639546061
21	41	20	1705.7162887445
21	42	20.5	1701.4593574964
21	43	21	1697.2188533554
21	44	21.5	1692.980990611
21	45	22	1688.7199152587
21	46	22.5	1684.4508546162
21	47	23	1680.2028974285
21	48	23.5	1675.9570107684
21	49	24	1671.6985039515
21	50	24.5	1667.4364845827
21	51	25	1663.1811496736
21	52	25.5	1658.9324448556
21	53	26	1654.6794668389
21	54	26.5	1650.4294625074
21	55	27	1646.1687187254
21	56	27.5	1641.923536879
21	57	28	1637.6564147472
21	58	28.5	1633.419165534
21	59	29	1629.1708625611
21	60	29.5	1625.1057519317
21	61	30	1621.8328021476
21	62	30.5	1618.1486762622
21	63	31	1613.9351765551
21	64	31.5	1609.3298048237
21	65	32	1604.2309994008
21	66	32.5	1598.5932111274
21	67	33	1592.4688536683
21	68	33.5	1585.8699043905
21	69	34	1578.8409345299
21	70	34.5	1571.7081875233
21	71	35	1564.5919801639
21	72	35.5	1557.4692466408
21	73	36	1550.3487931844
21	74	36.5	1543.2247457411
21	75	37	1536.116936204
21	76	37.5	1529.0130291758
21	77	38	1521.8917543115
21	78	38.5	1514.7889857134
21	79	39	1507.6729931347
21	80	39.5	1500.5500432672
21	81	40	1493.4479053598
21	82	40.5	1486.3359613558
22	7	3	243.31684103317
22	8	3.5	243.31083854113
22	9	4	243.30041073961
22	10	4.5	243.28623306868
22	11	5	243.26809797797
22	12	5.5	243.24581887119
22	13	6	243.21943441313
22	14	6.5	243.18912463216
22	15	7	243.15511231392
22	16	7.5	243.11762675876
22	17	8	243.0764103363
22	18	8.5	243.03123234748
22	19	9	242.98150322319
22	20	9.5	242.92821757821
22	21	10	242.87446557079
22	22	10.5	242.82072411827
22	23	11	242.76994505816
22	24	11.5	242.71828776458
22	25	12	242.24519395444
22	26	12.5	241.7727419429
22	27	13	241.30020866462
22	28	13.5	240.82753843861
22	29	14	240.35503396613
22	30	14.5	239.88372450473
22	31	15	239.41118017165
22	32	15.5	238.93858476856
22	33	16	238.46611547645
22	34	16.5	237.9938317067
22	35	17	237.52140040521
22	36	17.5	237.04953442723
22	37	18	236.57697512186
22	38	18.5	236.10465902218
22	39	19	235.85095963674
22	40	19.5	235.77946855268
22	41	20	234.82691907417
22	42	20.5	232.79464128288
22	43	21	230.76737144217
22	44	21.5	228.73739257327
22	45	22	226.70871547109
22	46	22.5	224.67840208416
22	47	23	222.64855461218
22	48	23.5	220.61997369316
22	49	24	218.59420234314
22	50	24.5	216.56531129626
22	51	25	214.53600470186
22	52	25.5	212.50834326516
22	53	26	210.48124783428
22	54	26.5	208.45597610867
22	55	27	206.42584202345
22	56	27.5	204.39587861719
22	57	28	202.37141477771
22	58	28.5	200.34130708734
22	59	29	198.31235466874
22	60	29.5	196.28436288005
22	61	30	194.25709672808
22	62	30.5	192.23080447025
22	63	31	190.20218155801
22	64	31.5	188.17849228263
22	65	32	186.15220951068
22	66	32.5	184.12258001091
22	67	33	182.092292352
22	68	33.5	180.2417711966
22	69	34	179.62129811675
22	70	34.5	179.00023986015
22	71	35	178.3795682349
22	72	35.5	177.75926963484
22	73	36	177.13790799188
22	74	36.5	176.51514746994
22	75	37	175.89432052872
22	76	37.5	175.27451396151
22	77	38	174.65408839914
22	78	38.5	174.03431136999
22	79	39	173.4142847911
22	80	39.5	172.79328981764
22	81	40	172.1724221867
22	82	40.5	171.55352100264
23	7	3	2497.2687308043
23	8	3.5	2496.5383912213
23	9	4	2495.2696121773
23	10	4.5	2493.5445762835
23	11	5	2491.338030342
23	12	5.5	2488.627270651
23	13	6	2485.4170016814
23	14	6.5	2481.7291279659
23	15	7	2477.5907564536
23	16	7.5	2473.0297867116
23	17	8	2468.0148721896
23	18	8.5	2462.5179430759
23	19	9	2456.4672648963
23	20	9.5	2449.9838551497
23	21	10	2443.4437018
23	22	10.5	2436.9048327105
23	23	11	2430.3750553625
23	24	11.5	2423.8363897018
23	25	12	2417.3128208825
23	26	12.5	2410.798101929
23	27	13	2404.2822623765
23	28	13.5	2397.7645344278
23	29	14	2391.2490920834
23	30	14.5	2384.7501279423
23	31	15	2378.2341359537
23	32	15.5	2371.7174397511
23	33	16	2365.2024825141
23	34	16.5	2358.6900834749
23	35	17	2352.1756500984
23	36	17.5	2345.6690120585
23	37	18	2339.1528136125
23	38	18.5	2332.6399687715
23	39	19	2326.1169161843
23	40	19.5	2319.5921632443
23	41	20	2313.1937514488
23	42	20.5	2306.9700382268
23	43	21	2300.7616615156
23	44	21.5	2294.5449885875
23	45	22	2288.3323022332
23	46	22.5	2282.1146048671
23	47	23	2275.8983343337
23	48	23.5	2269.6859425334
23	49	24	2263.4821548481
23	50	24.5	2257.2688133018
23	51	25	2251.0541991703
23	52	25.5	2244.844623222
23	53	26	2238.6367806289
23	54	26.5	2232.4345230097
23	55	27	2226.217374743
23	56	27.5	2220.0007491689
23	57	28	2213.8009656454
23	58	28.5	2207.5838982118
23	59	29	2201.3703687191
23	60	29.5	2195.15978109
23	61	30	2188.9514156748
23	62	30.5	2182.7460327446
23	63	31	2176.5335123427
23	64	31.5	2170.3361008698
23	65	32	2164.1307469895
23	66	32.5	2157.9151439816
23	67	33	2151.6975254063
23	68	33.5	2145.4503500676
23	69	34	2138.9492827468
23	70	34.5	2132.4420841774
23	71	35	2125.9389365772
23	72	35.5	2119.4396973848
23	73	36	2112.929320056
23	74	36.5	2106.404285836
23	75	37	2099.8995108968
23	76	37.5	2093.4054270266
23	77	38	2086.9048575731
23	78	38.5	2080.4110831907
23	79	39	2073.9146941267
23	80	39.5	2067.4081586134
23	81	40	2060.9029573435
23	82	40.5	2054.4183597127
24	7	3	1630.0268724975
24	8	3.5	1630.0128098349
24	9	4	1629.9893088539
24	10	4.5	1629.900620958
24	11	5	1629.6836350461
24	12	5.5	1629.4175205276
24	13	6	1629.0991179633
24	14	6.5	1628.7309310555
24	15	7	1628.3157658455
24	16	7.5	1627.8517687232
24	17	8	1627.3386810892
24	18	8.5	1626.7740147263
24	19	9	1626.1587299653
24	20	9.5	1625.4599489005
24	21	10	1624.7014820904
24	22	10.5	1623.988219264
24	23	11	1623.3060374642
24	24	11.5	1622.5819276634
24	25	12	1621.8181503806
24	26	12.5	1621.0160956007
24	27	13	1620.2246650581
24	28	13.5	1619.445666205
24	29	14	1618.6782018133
24	30	14.5	1617.9220770355
24	31	15	1617.1745519161
24	32	15.5	1616.4349630054
24	33	16	1615.4535340754
24	34	16.5	1614.6839972869
24	35	17	1613.9199589278
24	36	17.5	1613.1619018047
24	37	18	1612.4113051367
24	38	18.5	1611.6658109911
24	39	19	1610.9229697604
24	40	19.5	1610.2290218666
24	41	20	1609.610613035
24	42	20.5	1608.9953800164
24	43	21	1608.3826599745
24	44	21.5	1607.770566457
24	45	22	1607.1068265579
24	46	22.5	1606.434137985
24	47	23	1605.7624385222
24	48	23.5	1605.0927552354
24	49	24	1604.4221947428
24	50	24.5	1603.7528830395
24	51	25	1603.0851943846
24	52	25.5	1602.4188482742
24	53	26	1601.7520372319
24	54	26.5	1601.0872222349
24	55	27	1600.4451237515
24	56	27.5	1599.882165452
24	57	28	1599.3421328989
24	58	28.5	1598.8403902672
24	59	29	1598.3953455879
24	60	29.5	1598.285300359
24	61	30	1599.3595995302
24	62	30.5	1603.2267859939
24	63	31	1607.9007776781
24	64	31.5	1612.5733999733
24	65	32	1617.1751606039
24	66	32.5	1621.7578182209
24	67	33	1626.2949081828
24	68	33.5	1630.8132641475
24	69	34	1635.2955612484
24	70	34.5	1639.7755648334
24	71	35	1644.2277704722
24	72	35.5	1648.6654010114
24	73	36	1653.0927129181
24	74	36.5	1657.5214923654
24	75	37	1661.9209130758
24	76	37.5	1666.3263748761
24	77	38	1670.7171975811
24	78	38.5	1675.1179410955
24	79	39	1679.4851335133
24	80	39.5	1683.8543676313
24	81	40	1688.2365825111
24	82	40.5	1692.6039081987
25	7	3	360.18661169056
25	8	3.5	360.90204965509
25	9	4	362.09766206611
25	10	4.5	363.75889845565
25	11	5	365.88218231406
25	12	5.5	368.486206959
25	13	6	371.60188861657
25	14	6.5	375.20472767763
25	15	7	379.26726603229
25	16	7.5	383.80764191318
25	17	8	388.82838580664
25	18	8.5	394.35384579748
25	19	9	400.37462470867
25	20	9.5	406.8904701164
25	21	10	413.86836476903
25	22	10.5	421.34583248105
25	23	11	429.30166697782
25	24	11.5	437.74647997785
25	25	12	446.47102705948
25	26	12.5	455.19220507517
25	27	13	463.79785997607
25	28	13.5	472.26833835337
25	29	14	480.61339625809
25	30	14.5	488.83515236806
25	31	15	496.96339971572
25	32	15.5	505.00535234809
25	33	16	512.90072382614
25	34	16.5	520.77854402643
25	35	17	528.60007629357
25	36	17.5	536.36037808377
25	37	18	544.04430649802
25	38	18.5	551.67599991243
25	39	19	559.2805351885
25	40	19.5	566.84485022165
25	41	20	574.40795716085
25	42	20.5	581.93222407904
25	43	21	589.41598117165
25	44	21.5	596.87299144454
25	45	22	604.30411078501
25	46	22.5	611.70271579362
25	47	23	619.09044201858
25	48	23.5	626.45599321276
25	49	24	633.83119240496
25	50	24.5	641.19265671447
25	51	25	648.5362698324
25	52	25.5	655.86511689331
25	53	26	663.19907753542
25	54	26.5	670.51108455565
25	55	27	677.67021687608
25	56	27.5	684.06055432837
25	57	28	690.20092749782
25	58	28.5	695.91562850121
25	59	29	700.98455650359
25	60	29.5	705.92293338757
25	61	30	710.61734058149
25	62	30.5	713.17229517177
25	63	31	713.65254956763
25	64	31.5	713.84018839709
25	65	32	714.0249816291
25	66	32.5	714.20900774095
25	67	33	714.39120398927
25	68	33.5	714.57264793478
25	69	34	714.75264386181
25	70	34.5	714.93254768848
25	71	35	715.11133523006
25	72	35.5	715.28953747917
25	73	36	715.46732536145
25	74	36.5	715.64517217688
25	75	37	715.82184003107
25	76	37.5	715.9987504771
25	77	38	716.17507306021
25	78	38.5	716.35179403424
25	79	39	716.52716769464
25	80	39.5	716.7026233431
25	81	40	716.87860026117
25	82	40.5	717.05397927295
26	8	3.5	1.6455819391718
26	9	4	2.6761059106281
26	10	4.5	3.7021800504066
26	11	5	4.7235636225622
26	12	5.5	5.6950464775017
26	13	6	6.5687322150124
26	14	6.5	7.5051418749732
26	15	7	8.501276462127
26	16	7.5	8.563147191881
26	17	8	8.4745540270054
26	18	8.5	8.5299582268608
26	19	9	8.5066300805503
26	20	9.5	8.5220204419068
26	21	10	8.4774239525277
26	22	10.5	8.5085246659125
26	23	11	8.5119088741097
26	24	11.5	8.5760193071499
26	25	12	8.5659617387069
26	26	12.5	8.5690494926165
26	27	13	8.4932651135799
26	28	13.5	8.4517204434456
26	29	14	8.4579460921775
26	30	14.5	9.3684725043535
26	31	15	10.383109647111
26	32	15.5	11.352665298729
26	33	16	12.277035598434
26	34	16.5	13.223256035653
26	35	17	12.907245667691
26	36	17.5	12.404726280528
26	37	18	11.366983234093
26	38	18.5	9.9693961535508
26	39	19	8.4579681814796
26	40	19.5	8.5381719684422
26	41	20	8.4497851949542
26	42	20.5	8.4676884585557
26	43	21	8.4996729728494
26	44	21.5	8.5259260189075
26	45	22	8.5504766533625
26	46	22.5	8.5759732872838
26	47	23	8.4715267891771
26	48	23.5	8.4945117038776
26	49	24	8.4578823217734
26	50	24.5	8.5291908307451
26	51	25	8.5146841880594
26	52	25.5	8.5080228890603
26	53	26	8.4925339438518
26	54	26.5	8.4538785572195
26	55	27	8.5193505737729
26	56	27.5	8.4920543373896
26	57	28	8.4803188331247
26	58	28.5	8.4703847052374
26	59	29	8.5241874921819
26	60	29.5	7.4717301256729
26	61	30	6.6445157428503
26	62	30.5	7.7841091361687
26	63	31	8.7617685549472
26	64	31.5	9.602537798404
26	65	32	10.595154076845
26	66	32.5	11.73997529713
26	67	33	12.599629533889
26	68	33.5	13.580687570574
26	69	34	14.20397227279
26	70	34.5	14.251219960072
26	71	35	14.265217741382
26	72	35.5	14.252242560148
26	73	36	14.290475123116
26	74	36.5	14.293010886073
26	75	37	14.299312909433
26	76	37.5	14.197171398039
26	77	38	14.303598621828
26	78	38.5	14.278259372039
26	79	39	14.269576124331
26	80	39.5	14.279956030395
26	81	40	14.266198694195
26	82	40.5	14.217457077851
27	8	3.5	1.9477288762198
27	9	4	2.8891950801346
27	10	4.5	3.8350202470278
27	11	5	4.8188176849117
27	12	5.5	5.8688880039245
27	13	6	6.7883493958489
27	14	6.5	7.7277704356057
27	15	7	8.651129013822
27	16	7.5	9.4353116756287
27	17	8	10.407904546608
27	18	8.5	11.446123800828
27	19	9	12.482664868606
27	20	9.5	13.086862323066
27	21	10	13.039519917153
27	22	10.5	13.131635858841
27	23	11	13.064975396968
27	24	11.5	13.078943986078
27	25	12	13.079962054673
27	26	12.5	13.003435296433
27	27	13	13.10296592261
27	28	13.5	13.05168301126
27	29	14	13.098583794851
27	30	14.5	13.003931868403
27	31	15	13.069517235195
27	32	15.5	13.124803860491
27	33	16	13.044303932454
27	34	16.5	13.051399854424
27	35	17	13.014083629994
27	36	17.5	13.050186690272
27	37	18	13.102078719156
27	38	18.5	13.080967958384
27	39	19	13.020409266467
27	40	19.5	13.081717010437
27	41	20	13.095506578438
27	42	20.5	13.094307308894
27	43	21	13.007555914412
27	44	21.5	13.089539061094
27	45	22	13.096774296363
27	46	22.5	13.121594429378
27	47	23	13.07755049557
27	48	23.5	13.060806489145
27	49	24	13.075251773906
27	50	24.5	13.116356237897
27	51	25	13.00739043529
27	52	25.5	13.041211174671
27	53	26	13.081718427372
27	54	26.5	13.084109073659
27	55	27	13.121426649707
27	56	27.5	13.126897388895
27	57	28	13.088712531387
27	58	28.5	13.089159397274
27	59	29	13.079337785743
27	60	29.5	13.05209184818
27	61	30	13.0121643712
27	62	30.5	13.089608286666
27	63	31	13.052319194819
27	64	31.5	13.055035938102
27	65	32	13.062520447954
27	66	32.5	13.120194946717
27	67	33	13.089832526781
27	68	33.5	13.033959922705
27	69	34	13.048536028022
27	70	34.5	13.099062987974
27	71	35	13.095172929913
27	72	35.5	13.039100179067
27	73	36	13.031017141995
27	74	36.5	13.126782824244
27	75	37	13.04375395638
27	76	37.5	13.036003081219
27	77	38	13.113150164562
27	78	38.5	13.063693333925
27	79	39	13.026889262333
27	80	39.5	13.011247418919
27	81	40	13.039034225343
27	82	40.5	13.007928568349
28	8	3.5	1.8470616036361
28	9	4	2.7475277348422
28	10	4.5	3.7304908578517
28	11	5	4.5837624091632
28	12	5.5	5.680428551964
28	13	6	6.6237142801867
28	14	6.5	7.5670377819753
28	15	7	8.5811451430642
28	16	7.5	9.5088622136787
28	17	8	10.46685532128
28	18	8.5	11.592977667153
28	19	9	12.492636091223
28	20	9.5	13.493120780096
28	21	10	14.413565432495
28	22	10.5	15.407085067988
28	23	11	16.287658184967
28	24	11.5	17.346536351205
28	25	12	17.513065206474
28	26	12.5	17.511980717779
28	27	13	17.182788406995
28	28	13.5	16.957963417603
28	29	14	16.606094387723
28	30	14.5	16.433202451095
28	31	15	16.227279114545
28	32	15.5	16.037122096803
28	33	16	15.920791113975
28	34	16.5	15.698486121588
28	35	17	15.625463697225
28	36	17.5	15.564405272747
28	37	18	15.419532766776
28	38	18.5	15.346070970248
28	39	19	15.290777829331
28	40	19.5	15.189528289696
28	41	20	15.124171241207
28	42	20.5	15.13455832953
28	43	21	14.977562867784
28	44	21.5	14.913321905866
28	45	22	14.862673027156
28	46	22.5	14.835174846784
28	47	23	14.815144225757
28	48	23.5	14.819078764644
28	49	24	14.836933996236
28	50	24.5	14.717495247866
28	51	25	14.684654532631
28	52	25.5	14.773808841943
28	53	26	14.688755535156
28	54	26.5	14.636552411323
28	55	27	13.77269679968
28	56	27.5	12.457166556897
28	57	28	12.292425741494
28	58	28.5	10.839909966448
28	59	29	10.050282209671
28	60	29.5	9.8843253061733
28	61	30	9.6009976768988
28	62	30.5	9.5807252076572
28	63	31	9.317523803053
28	64	31.5	9.3529333795094
28	65	32	9.1063951833978
28	66	32.5	9.2048060300288
28	67	33	9.0499152374072
28	68	33.5	9.0482213513256
28	69	34	8.943048033098
28	70	34.5	8.9862550604671
28	71	35	8.9694059586168
28	72	35.5	8.7950160999136
28	73	36	8.9310040433633
28	74	36.5	8.8984871169975
28	75	37	8.882565122698
28	76	37.5	8.8067862009781
28	77	38	8.7769052651601
28	78	38.5	8.8302436006127
28	79	39	8.7267953847277
28	80	39.5	8.7864854481272
28	81	40	8.8321634690707
28	82	40.5	8.7228523097849
29	9	4	2632.5300726173
29	10	4.5	2632.4881376581
29	11	5	2632.3859219713
29	12	5.5	2632.235792439
29	13	6	2632.0302030591
29	14	6.5	2631.7688974058
29	15	7	2631.4546243529
29	16	7.5	2631.1115964432
29	17	8	2630.7453728558
29	18	8.5	2630.3614161173
29	19	9	2629.955724243
29	20	9.5	2629.5272776113
29	21	10	2629.0758549628
29	22	10.5	2628.1510422635
29	23	11	2627.1039015026
29	24	11.5	2626.0050836731
29	25	12	2624.8576548725
29	26	12.5	2623.6598509504
29	27	13	2622.4087805812
29	28	13.5	2621.101015667
29	29	14	2619.739997228
29	30	14.5	2618.3257885587
29	31	15	2616.8593843103
29	32	15.5	2615.3422464152
29	33	16	2613.7699399485
29	34	16.5	2612.1433020589
29	35	17	2610.4653946944
29	36	17.5	2608.7370490078
29	37	18	2606.9592163771
29	38	18.5	2605.128073582
29	39	19	2603.2470444837
29	40	19.5	2601.3144743402
29	41	20	2599.322285513
29	42	20.5	2597.2832067561
29	43	21	2595.1884018887
29	44	21.5	2593.0356649533
29	45	22	2590.8281155899
29	46	22.5	2588.568907061
29	47	23	2586.2579921309
29	48	23.5	2583.8869755465
29	49	24	2581.4643357184
29	50	24.5	2578.9871388319
29	51	25	2576.4710343836
29	52	25.5	2573.9464326078
29	53	26	2571.4182418206
29	54	26.5	2568.8898705194
29	55	27	2566.3496419202
29	56	27.5	2563.8078517478
29	57	28	2561.2604095628
29	58	28.5	2558.7075158478
29	59	29	2556.1512863648
29	60	29.5	2553.5948977096
29	61	30	2551.0338219336
29	62	30.5	2548.4700599945
29	63	31	2545.9015407185
29	64	31.5	2543.3355926131
29	65	32	2540.7612734187
29	66	32.5	2538.1868665202
29	67	33	2535.6104791119
29	68	33.5	2533.0334055679
29	69	34	2530.4535319218
29	70	34.5	2527.8715337017
29	71	35	2525.2909679128
29	72	35.5	2522.7138094619
29	73	36	2520.1306163222
29	74	36.5	2517.5498437488
29	75	37	2514.9655575543
29	76	37.5	2512.3802201347
29	77	38	2509.7936665786
29	78	38.5	2507.2082149761
29	79	39	2504.6243741214
29	80	39.5	2502.0351746834
29	81	40	2499.4465079167
29	82	40.5	2496.8610691606
30	9	4	3029.4819660382
30	10	4.5	3029.1090627452
30	11	5	3028.200117873
30	12	5.5	3026.8651029365
30	13	6	3025.0369157121
30	14	6.5	3022.7132759551
30	15	7	3019.9186278032
30	16	7.5	3016.8682793742
30	17	8	3013.6116652247
30	18	8.5	3010.1973604374
30	19	9	3006.589777682
30	20	9.5	3002.7798500555
30	21	10	2998.7656100243
30	22	10.5	2994.6089528939
30	23	11	2990.2555501293
30	24	11.5	2985.6873041438
30	25	12	2980.9169619903
30	26	12.5	2975.9371893555
30	27	13	2970.7359657884
30	28	13.5	2965.2990392493
30	29	14	2959.6407155013
30	30	14.5	2953.7612576857
30	31	15	2947.6648009848
30	32	15.5	2941.3574232627
30	33	16	2934.8206866803
30	34	16.5	2928.0580716142
30	35	17	2921.0823078658
30	36	17.5	2913.8968508849
30	37	18	2906.505655949
30	38	18.5	2898.8928283295
30	39	19	2891.0726024508
30	40	19.5	2883.0380988587
30	41	20	2874.7557354253
30	42	20.5	2866.2784309126
30	43	21	2857.5694496166
30	44	21.5	2848.619620448
30	45	22	2839.4419130553
30	46	22.5	2830.0494368747
30	47	23	2820.4419955239
30	48	23.5	2810.5846864227
30	49	24	2800.5127578732
30	50	24.5	2790.2140127784
30	51	25	2779.7535126526
30	52	25.5	2769.2576855775
30	53	26	2758.746937478
30	54	26.5	2748.2354389066
30	55	27	2737.6746445801
30	56	27.5	2727.1073581409
30	57	28	2716.5165739162
30	58	28.5	2705.9031253979
30	59	29	2695.2758086957
30	60	29.5	2684.6478302479
30	61	30	2674.0003654752
30	62	30.5	2663.3417331977
30	63	31	2652.6627973672
30	64	31.5	2641.9945071675
30	65	32	2631.2914129877
30	66	32.5	2620.5879541663
30	67	33	2609.8762610964
30	68	33.5	2599.1617153203
30	69	34	2588.435527727
30	70	34.5	2577.7005069172
30	71	35	2566.9714416424
30	72	35.5	2556.2565428549
30	73	36	2545.5165539989
30	74	36.5	2534.7866289886
30	75	37	2524.0420956034
30	76	37.5	2513.2931916034
30	77	38	2502.5392313432
30	78	38.5	2491.7898526117
30	79	39	2481.0471707899
30	80	39.5	2470.2822099039
30	81	40	2459.5194636742
30	82	40.5	2448.7701383522
31	9	4	2.0610479429126
31	10	4.5	2.052148279557
31	11	5	2.0427671443112
31	12	5.5	1.9429657098791
31	13	6	1.7473714750214
31	14	6.5	1.8728193199215
31	15	7	1.9922691743076
31	16	7.5	0.12374145950813
31	17	8	-0.17718632975128
31	18	8.5	0.11080839971081
31	19	9	-0.046656292621044
31	20	9.5	0.030780722713097
31	21	10	-0.089192978758366
31	22	10.5	0.062201426769608
31	23	11	0.006768416394479
31	24	11.5	0.12822086608037
31	25	12	-0.020115136886016
31	26	12.5	0.0061755078192824
31	27	13	-0.15156875807326
31	28	13.5	-0.083089340268636
31	29	14	0.012451297463851
31	30	14.5	1.8210528243519
31	31	15	2.0292742855148
31	32	15.5	1.9391113032354
31	33	16	1.8487405994115
31	34	16.5	1.8924408744369
31	35	17	-0.63202073592403
31	36	17.5	-1.0050387743264
31	37	18	-2.0754860928698
31	38	18.5	-2.7951741610838
31	39	19	-3.0228559441425
31	40	19.5	0.16040757392533
31	41	20	-0.17677354697604
31	42	20.5	0.035806527202947
31	43	21	0.063969028587454
31	44	21.5	0.052506092116236
31	45	22	0.049101268909872
31	46	22.5	0.050993267842568
31	47	23	-0.2088929962134
31	48	23.5	0.045969829400999
31	49	24	-0.073258764208294
31	50	24.5	0.14261701794341
31	51	25	-0.029013285371473
31	52	25.5	-0.013322597998194
31	53	26	-0.030977890416981
31	54	26.5	-0.077310773264617
31	55	27	0.13094403310679
31	56	27.5	-0.054592472766526
31	57	28	-0.023471008529889
31	58	28.5	-0.01986825577449
31	59	29	0.10760557388887
31	60	29.5	-2.1049147330179
31	61	30	-1.6544287656452
31	62	30.5	2.2791867866367
31	63	31	1.955318837557
31	64	31.5	1.6815384869138
31	65	32	1.9852325568814
31	66	32.5	2.2896424405696
31	67	33	1.719308473519
31	68	33.5	1.96211607337
31	69	34	1.2465694044318
31	70	34.5	0.094495374565014
31	71	35	0.027995562618599
31	72	35.5	-0.025950362468141
31	73	36	0.076465125936085
31	74	36.5	0.0050715259136638
31	75	37	0.012604046720078
31	76	37.5	-0.20428302278742
31	77	38	0.21285444757901
31	78	38.5	-0.050678499578499
31	79	39	-0.0173664954165
31	80	39.5	0.0207598121278
31	81	40	-0.027514672400429
31	82	40.5	-0.097483232687228
32	9	4	2.5701211970083
32	10	4.5	3.1242595125007
32	11	5	3.6730436192377
32	12	5.5	4.0685248856834
32	13	6	4.2192602062213
32	14	6.5	4.8985422986057
32	15	7	5.6586355989093
32	16	7.5	1.8364597566727
32	17	8	0.973
32	18	8.5	1.8066103744545
32	19	9	1.4815749080921
32	20	9.5	1.6414941685548
32	21	10	1.3930057343772
32	22	10.5	1.7049016833499
32	23	11	1.5914699774489
32	24	11.5	1.8469846828975
32	25	12	1.5397595859951
32	26	12.5	1.5942502693938
32	27	13	1.2660699536207
32	28	13.5	1.4042402087981
32	29	14	1.5992858968769
32	30	14.5	5.7494705596411
32	31	15	6.7922021736014
32	32	15.5	7.0982118459269
32	33	16	7.3431780020755
32	34	16.5	7.9923227946813
32	35	17	0.973
32	36	17.5	0.973
32	37	18	0.973
32	38	18.5	0.973
32	39	19	0.973
32	40	19.5	1.9094519307412
32	41	20	0.973
32	42	20.5	1.647639791885
32	43	21	1.7077853694732
32	44	21.5	1.6864303523844
32	45	22	1.6814051475766
32	46	22.5	1.6873653643102
32	47	23	0.973
32	48	23.5	1.6705059945746
32	49	24	1.4245742916483
32	50	24.5	1.8719211170772
32	51	25	1.5182386865481
32	52	25.5	1.5500028973514
32	53	26	1.5128601852514
32	54	26.5	1.4161169987731
32	55	27	1.8469435007801
32	56	27.5	1.4645017915368
32	57	28	1.5274605593409
32	58	28.5	1.5341942943343
32	59	29	1.7994819438414
32	60	29.5	0.973
32	61	30	0.973
32	62	30.5	5.8047633407595
32	63	31	5.7236287085154
32	64	31.5	5.5464580670892
32	65	32	6.8001407294939
32	66	32.5	8.3039766748503
32	67	33	7.1232809306228
32	68	33.5	8.4184182159909
32	69	34	6.3271321798338
32	70	34.5	2.3894073140773
32	71	35	2.1625691272625
32	72	35.5	1.9758316261093
32	73	36	2.3323142944288
32	74	36.5	2.0867033788756
32	75	37	2.1133301247213
32	76	37.5	1.3602627485619
32	77	38	2.8040894408184
32	78	38.5	1.8933002105989
32	79	39	2.007055994213
32	80	39.5	2.1393099709052
32	81	40	1.9718256625741
32	82	40.5	1.7273169552246
33	9	4	1.8829324078296
33	10	4.5	1.8916503337864
33	11	5	1.9675948757678
33	12	5.5	2.1001406380255
33	13	6	1.8389227838488
33	14	6.5	1.8788420795137
33	15	7	1.8467171564326
33	16	7.5	1.5683653236134
33	17	8	1.9451857419591
33	18	8.5	2.0764385084389
33	19	9	2.0730821355572
33	20	9.5	1.208394908919
33	21	10	-0.094684811825864
33	22	10.5	0.18423188337591
33	23	11	-0.13332092374563
33	24	11.5	0.027937178220597
33	25	12	0.002036137189716
33	26	12.5	-0.15305351648014
33	27	13	0.19906125235371
33	28	13.5	-0.10256582269911
33	29	14	0.093801567181945
33	30	14.5	-0.18930385289714
33	31	15	0.13117073358502
33	32	15.5	0.11057325059083
33	33	16	-0.16099985607434
33	34	16.5	0.014191843941809
33	35	17	-0.074632448861376
33	36	17.5	0.072206120556221
33	37	18	0.10378405776806
33	38	18.5	-0.042221521544271
33	39	19	-0.12111738383304
33	40	19.5	0.12261548793875
33	41	20	0.027579136001879
33	42	20.5	-0.0023985390877357
33	43	21	-0.1735027889628
33	44	21.5	0.1639662933629
33	45	22	0.014470470538363
33	46	22.5	0.049640266029165
33	47	23	-0.088087867614814
33	48	23.5	-0.033488012850285
33	49	24	0.028890569522044
33	50	24.5	0.082208927981558
33	51	25	-0.21793160521425
33	52	25.5	0.067641478762962
33	53	26	0.081014505401253
33	54	26.5	0.0047812925744815
33	55	27	0.074635152094995
33	56	27.5	0.010941478377209
33	57	28	-0.076369715016334
33	58	28.5	0.00089373177382868
33	59	29	-0.019643223062157
33	60	29.5	-0.054491875125095
33	61	30	-0.079854953959583
33	62	30.5	0.15488783093169
33	63	31	-0.074578183693809
33	64	31.5	0.0054334865650141
33	65	32	0.014969019703567
33	66	32.5	0.11534899752587
33	67	33	-0.060724839870819
33	68	33.5	-0.11174520815257
33	69	34	0.029152210634201
33	70	34.5	0.10105391990394
33	71	35	-0.0077801161212854
33	72	35.5	-0.11214550169185
33	73	36	-0.016166074145584
33	74	36.5	0.19153136449866
33	75	37	-0.1660577357281
33	76	37.5	-0.015501750321128
33	77	38	0.15429416668601
33	78	38.5	-0.098913661274128
33	79	39	-0.073608143185265
33	80	39.5	-0.031283686826939
33	81	40	0.055573612847368
33	82	40.5	-0.062211313988083
34	9	4	2.56268104044
34	10	4.5	3.0485505086538
34	11	5	3.6378336742614
34	12	5.5	4.3822324153662
34	13	6	4.4748311452333
34	14	6.5	5.0245613350523
34	15	7	5.437404237887
34	16	7.5	5.2090775838437
34	17	8	6.5953472256838
34	18	8.5	7.5285808519187
34	19	9	8.1283407174621
34	20	9.5	5.7595597442964
34	21	10	1.6462901092424
34	22	10.5	2.5356975694928
34	23	11	1.5264871058784
34	24	11.5	2.0356632817258
34	25	12	1.9541204180907
34	26	12.5	1.460759675317
34	27	13	2.5785028605898
34	28	13.5	1.6223836123883
34	29	14	2.245593377134
34	30	14.5	1.3471819300201
34	31	15	2.3598587657631
34	32	15.5	2.3017503456577
34	33	16	1.4381641393989
34	34	16.5	1.9896116741574
34	35	17	1.7073393543577
34	36	17.5	2.1719521479322
34	37	18	2.2775279261091
34	38	18.5	1.8146942773026
34	39	19	1.5619618386023
34	40	19.5	2.3344389304842
34	41	20	2.0362299592609
34	42	20.5	1.9415057527484
34	43	21	1.3968948097777
34	44	21.5	2.4658629856382
34	45	22	1.9949846192286
34	46	22.5	2.1086681810061
34	47	23	1.6698456855277
34	48	23.5	1.8404622947193
34	49	24	2.0382895895897
34	50	24.5	2.2110538805261
34	51	25	1.2576113738745
34	52	25.5	2.1565932829816
34	53	26	2.203283934003
34	54	26.5	1.9631754114242
34	55	27	2.1876904983408
34	56	27.5	1.9868137782974
34	57	28	1.7076401779275
34	58	28.5	1.9514012974429
34	59	29	1.88572444548
34	60	29.5	1.7736317349825
34	61	30	1.6908137989002
34	62	30.5	2.4372334700645
34	63	31	1.7104667787427
34	64	31.5	1.9624151106607
34	65	32	1.9931581877195
34	66	32.5	2.3162859958828
34	67	33	1.757080871733
34	68	33.5	1.5922970366434
34	69	34	2.0363743876741
34	70	34.5	2.2685448772409
34	71	35	1.92460422898
34	72	35.5	1.5913907852043
34	73	36	1.8922597030419
34	74	36.5	2.5581084545299
34	75	37	1.4222333438522
34	76	37.5	1.8948026174835
34	77	38	2.4384916359813
34	78	38.5	1.6347319176878
34	79	39	1.7115442157144
34	80	39.5	1.8430496266313
34	81	40	2.1184280397315
34	82	40.5	1.745803524011
35	9	4	1.8009322624122
35	10	4.5	1.9659262460191
35	11	5	1.706543102623
35	12	5.5	2.1933322856016
35	13	6	1.8865714564454
35	14	6.5	1.8866470035771
35	15	7	2.0282147221779
35	16	7.5	1.8554341412289
35	17	8	1.9159862152021
35	18	8.5	2.2522446917463
35	19	9	1.7993168481393
35	20	9.5	2.0009693777468
35	21	10	1.8408893047972
35	22	10.5	1.9870392709877
35	23	11	1.7611462339573
35	24	11.5	2.1177563324757
35	25	12	0.33305771053762
35	26	12.5	-0.0021689773899567
35	27	13	-0.65838462156828
35	28	13.5	-0.44964997878373
35	29	14	-0.70373805975962
35	30	14.5	-0.34578387325568
35	31	15	-0.41184667310041
35	32	15.5	-0.38031403548288
35	33	16	-0.23266196565675
35	34	16.5	-0.44460998477328
35	35	17	-0.14604484872691
35	36	17.5	-0.12211684895521
35	37	18	-0.28974501194172
35	38	18.5	-0.14692359305728
35	39	19	-0.11058628183306
35	40	19.5	-0.2024990792704
35	41	20	-0.13071409697872
35	42	20.5	0.020774176645887
35	43	21	-0.31399092349216
35	44	21.5	-0.12848192383475
35	45	22	-0.10129775742145
35	46	22.5	-0.054996360743775
35	47	23	-0.040061242053273
35	48	23.5	0.0078690777737407
35	49	24	0.035710463183747
35	50	24.5	-0.23887749673873
35	51	25	-0.065681430471571
35	52	25.5	0.17830861862487
35	53	26	-0.17010661357342
35	54	26.5	-0.1044062476664
35	55	27	-1.7277112232868
35	56	27.5	-2.6310604855664
35	57	28	-0.32948163080542
35	58	28.5	-2.9050315500906
35	59	29	-1.5792555135552
35	60	29.5	-0.33191380699515
35	61	30	-0.56665525854911
35	62	30.5	-0.040544938483052
35	63	31	-0.52640280920837
35	64	31.5	0.070819152912819
35	65	32	-0.49307639222326
35	66	32.5	0.19682169326186
35	67	33	-0.30978158524317
35	68	33.5	-0.0033877721631228
35	69	34	-0.21034663645523
35	70	34.5	0.086414054738309
35	71	35	-0.033698203700741
35	72	35.5	-0.34877971740632
35	73	36	0.27197588689937
35	74	36.5	-0.065033852731656
35	75	37	-0.031843988599029
35	76	37.5	-0.15155784343967
35	77	38	-0.059761871636109
35	78	38.5	0.10667667090516
35	79	39	-0.20689643176997
35	80	39.5	0.11938012679906
[...]
94	32	15.5	3.7529572399002
94	33	16	3.9512733913416
94	34	16.5	4.3259047870461
94	35	17	2.4552945925509
94	36	17.5	0.973
94	37	18	0.973
94	38	18.5	1.3606782919536
94	39	19	1.2446498007441
94	40	19.5	1.3585379620984
94	41	20	1.3103596450821
94	42	20.5	0.973
94	43	21	1.2923836849469
94	44	21.5	1.3059049007018
94	45	22	1.5561695281921
94	46	22.5	0.973
94	47	23	1.7971792263313
94	48	23.5	0.973
94	49	24	1.5449381152699
94	50	24.5	1.3812494089022
94	51	25	1.616256881382
94	52	25.5	1.349782322966
94	53	26	3.8996393386261
94	54	26.5	4.2851072829618
94	55	27	5.2498933051852
94	56	27.5	4.3424404900586
94	57	28	2.3319978048083
94	58	28.5	2.4199148233029
94	59	29	2.0334269706084
94	60	29.5	2.2381078997366
94	61	30	0.973
94	62	30.5	0.973
94	63	31	1.5687075157698
94	64	31.5	0.973
94	65	32	0.973
94	66	32.5	0.973
94	67	33	0.973
94	68	33.5	0.973
94	69	34	0.973
94	70	34.5	1.3446978746667
94	71	35	0.973
94	72	35.5	1.5478029775292
94	73	36	1.4310120491074
94	74	36.5	0.973
94	75	37	1.3137361055465
94	76	37.5	1.2630602593785
94	77	38	1.5600447758375
94	78	38.5	1.4489931617497
94	79	39	1.4211532866723
94	80	39.5	1.403684012154
94	81	40	1.5843380553125
94	82	40.5	0.973
95	31	15	2632.5024971736
95	32	15.5	2632.4112629094
95	33	16	2632.2557264407
95	34	16.5	2632.046540942
95	35	17	2631.7796099866
95	36	17.5	2631.4693699188
95	37	18	2631.1087677073
95	38	18.5	2630.6912564236
95	39	19	2630.2211270466
95	40	19.5	2629.7001976615
95	41	20	2629.127467525
95	42	20.5	2627.9482946057
95	43	21	2626.5207824378
95	44	21.5	2624.9747454907
95	45	22	2623.305051938
95	46	22.5	2621.5107115316
95	47	23	2619.596805019
95	48	23.5	2617.5657649528
95	49	24	2615.4214770246
95	50	24.5	2613.1594715955
95	51	25	2610.7926327486
95	52	25.5	2608.3161272727
95	53	26	2605.7380059712
95	54	26.5	2603.049756024
95	55	27	2600.3103813257
95	56	27.5	2597.5701128555
95	57	28	2594.8312854785
95	58	28.5	2592.0913602656
95	59	29	2589.3551494017
95	60	29.5	2586.6178660111
95	61	30	2583.8815153228
95	62	30.5	2581.1408372391
95	63	31	2578.4004359262
95	64	31.5	2575.6634780306
95	65	32	2572.9242128006
95	66	32.5	2570.1842987128
95	67	33	2567.4429618594
95	68	33.5	2564.7052135196
95	69	34	2561.9674042301
95	70	34.5	2559.2305729614
95	71	35	2556.4931948045
95	72	35.5	2553.7547787732
95	73	36	2551.0160096408
95	74	36.5	2548.2771458129
95	75	37	2545.5364251229
95	76	37.5	2542.7977780771
95	77	38	2540.0591766373
95	78	38.5	2537.3198204798
95	79	39	2534.5854972805
95	80	39.5	2531.8647850743
95	81	40	2529.1554522971
95	82	40.5	2526.4645185741
96	31	15	3029.236753596
96	32	15.5	3028.4254601514
96	33	16	3027.0423644632
96	34	16.5	3025.1821990376
96	35	17	3022.808536727
96	36	17.5	3020.049751577
96	37	18	3016.8431250649
96	38	18.5	3013.1304391511
96	39	19	3008.949851024
96	40	19.5	3004.3175278604
96	41	20	2999.224570632
96	42	20.5	2993.7660459541
96	43	21	2987.8312799223
96	44	21.5	2981.4037567368
96	45	22	2974.4621412447
96	46	22.5	2967.0023165699
96	47	23	2959.045405509
96	48	23.5	2950.6015212005
96	49	24	2941.6868180931
96	50	24.5	2932.282714027
96	51	25	2922.4427735293
96	52	25.5	2912.1469029188
96	53	26	2901.4285727572
96	54	26.5	2890.2523916848
96	55	27	2878.8636636073
96	56	27.5	2867.4712197455
96	57	28	2856.0847671116
96	58	28.5	2844.6937503144
96	59	29	2833.3181756223
96	60	29.5	2821.9381419867
96	61	30	2810.5619859854
96	62	30.5	2799.1678391891
96	63	31	2787.7748430446
96	64	31.5	2776.3961626282
96	65	32	2765.0078896554
96	66	32.5	2753.6169191105
96	67	33	2742.220033532
96	68	33.5	2730.8380669085
96	69	34	2719.4558468908
96	70	34.5	2708.0776929157
96	71	35	2696.6972652972
96	72	35.5	2685.3125227997
96	73	36	2673.9263123134
96	74	36.5	2662.5397081384
96	75	37	2651.1447779173
96	76	37.5	2639.7584675793
96	77	38	2628.3723468557
96	78	38.5	2616.9830882866
96	79	39	2605.6147549478
96	80	39.5	2594.3030112293
96	81	40	2583.0385790858
96	82	40.5	2571.8506435994
97	32	15.5	2.084097520208
97	33	16	3.2391351811517
97	34	16.5	4.1573262654523
97	35	17	5.1217595478449
97	36	17.5	5.8415105413202
97	37	18	6.8513691488256
97	38	18.5	7.8911696032689
97	39	19	8.7575069753498
97	40	19.5	9.7138741975276
97	41	20	10.643074481399
97	42	20.5	11.638626604914
97	43	21	12.638432870651
97	44	21.5	13.606719043322
97	45	22	14.734962963429
97	46	22.5	15.734003968185
97	47	23	16.723948394728
97	48	23.5	17.772403897138
97	49	24	18.763310016824
97	50	24.5	19.716438269121
97	51	25	20.591352474852
97	52	25.5	21.536581952602
97	53	26	22.465178214493
97	54	26.5	23.327375010643
97	55	27	23.405656991872
97	56	27.5	23.440824131438
97	57	28	23.426694789914
97	58	28.5	23.451861613594
97	59	29	23.453859793915
97	60	29.5	23.371477725258
97	61	30	23.380997693721
97	62	30.5	23.453194206796
97	63	31	23.452989128645
97	64	31.5	23.360877730787
97	65	32	23.458014002667
97	66	32.5	23.413517952718
97	67	33	23.430026772521
97	68	33.5	23.434103748427
97	69	34	23.445185413848
97	70	34.5	23.39544876
97	71	35	23.374499733354
97	72	35.5	23.404845014921
97	73	36	23.419336515019
97	74	36.5	23.390534072668
97	75	37	23.438535654185
97	76	37.5	23.390766673224
97	77	38	23.369915753769
97	78	38.5	23.370748203228
97	79	39	23.301780269902
97	80	39.5	23.220077166551
97	81	40	23.169296043682
97	82	40.5	23.015827348041
98	33	16	1287.3528578302
98	34	16.5	1287.3682744765
98	35	17	1287.406815918
98	36	17.5	1287.4680855914
98	37	18	1287.5530168311
98	38	18.5	1287.6590282088
98	39	19	1287.7848676518
98	40	19.5	1287.9308224549
98	41	20	1288.0772805525
98	42	20.5	1288.2201192176
98	43	21	1288.3597012097
98	44	21.5	1288.4965500027
98	45	22	1288.6304528222
98	46	22.5	1288.7635234647
98	47	23	1288.8945899954
98	48	23.5	1289.0244601191
98	49	24	1289.1529814027
98	50	24.5	1289.2811131944
98	51	25	1289.4085653451
98	52	25.5	1289.5356358173
98	53	26	1289.666477462
98	54	26.5	1289.8082295564
98	55	27	1289.962514331
98	56	27.5	1290.1246182881
98	57	28	1290.2864775378
98	58	28.5	1290.448244717
98	59	29	1290.6099974726
98	60	29.5	1293.7185841568
98	61	30	1298.2486590961
98	62	30.5	1302.8277023578
98	63	31	1305.4020811662
98	64	31.5	1307.8880429405
98	65	32	1308.1849228678
98	66	32.5	1307.4514485978
98	67	33	1306.7363867697
98	68	33.5	1304.1457880645
98	69	34	1301.585267526
98	70	34.5	1299.0997622674
98	71	35	1296.6720861731
98	72	35.5	1294.4075679728
98	73	36	1292.5877741876
98	74	36.5	1292.3598286267
98	75	37	1292.4737214446
98	76	37.5	1292.5858152278
98	77	38	1292.6966616942
98	78	38.5	1292.8073399806
98	79	39	1292.9170002071
98	80	39.5	1293.0270056359
98	81	40	1293.1360310424
98	82	40.5	1293.2451496774
99	33	16	1828.4742939621
99	34	16.5	1828.1052274471
99	35	17	1827.1825653277
99	36	17.5	1825.715801131
99	37	18	1823.6825913098
99	38	18.5	1821.1447339188
99	39	19	1818.1322029317
99	40	19.5	1814.638120655
99	41	20	1811.1319897706
99	42	20.5	1807.7125062216
99	43	21	1804.3709857371
99	44	21.5	1801.0948966211
99	45	22	1797.8893325832
99	46	22.5	1794.7036904301
99	47	23	1791.5660256715
99	48	23.5	1788.4570022793
99	49	24	1785.3802694185
99	50	24.5	1782.3128607906
99	51	25	1779.2617224157
99	52	25.5	1776.219721226
99	53	26	1773.0874401238
99	54	26.5	1769.6939685158
99	55	27	1766.0004710434
99	56	27.5	1762.1197863976
99	57	28	1758.2449599225
99	58	28.5	1754.3723375667
99	59	29	1750.5000605043
99	60	29.5	1748.5807467466
99	61	30	1748.9966523936
99	62	30.5	1749.3104052125
99	63	31	1745.6899159523
99	64	31.5	1742.1937723868
99	65	32	1738.5970366271
99	66	32.5	1734.9184386311
99	67	33	1731.3321846658
99	68	33.5	1728.9300312186
99	69	34	1726.6224015979
99	70	34.5	1724.3823783407
99	71	35	1722.1285316357
99	72	35.5	1719.7689225124
99	73	36	1717.1297076372
99	74	36.5	1713.9840063285
99	75	37	1710.82633611
99	76	37.5	1707.7185440008
99	77	38	1704.6453336598
99	78	38.5	1701.5767860981
99	79	39	1698.5364641743
99	80	39.5	1695.4865715401
99	81	40	1692.4638499534
99	82	40.5	1689.4385436159
100	33	16	2.3100753218873
100	34	16.5	1.8363821686013
100	35	17	1.9288665647851
100	36	17.5	1.4395019869506
100	37	18	2.0197172150109
100	38	18.5	2.0796009088866
100	39	19	1.7326747441618
100	40	19.5	1.9127344443556
100	41	20	1.8584005677421
100	42	20.5	1.9911042470299
100	43	21	1.9996125314757
100	44	21.5	1.9365723453416
100	45	22	2.2564878402138
100	46	22.5	1.998082009512
100	47	23	1.9798888530862
100	48	23.5	2.096911004819
100	49	24	1.9818122393731
100	50	24.5	1.9062565045944
100	51	25	1.7498284114618
100	52	25.5	1.8904589554994
100	53	26	1.8571925237822
100	54	26.5	1.7243935922999
100	55	27	0.15656396245789
100	56	27.5	0.070334279132069
100	57	28	-0.028258683048186
100	58	28.5	0.050333647360098
100	59	29	0.0039963606418993
100	60	29.5	-0.16476413731463
100	61	30	0.01903993692715
100	62	30.5	0.1443930261489
100	63	31	-0.00041015630122132
100	64	31.5	-0.18422279571649
100	65	32	0.19427254376001
100	66	32.5	-0.088992099896998
100	67	33	0.033017639606257
100	68	33.5	0.0081539518106695
100	69	34	0.022163330842744
100	70	34.5	-0.099473307696172
100	71	35	-0.041898053293117
100	72	35.5	0.060690563134848
100	73	36	0.028983000195588
100	74	36.5	-0.057604884700851
100	75	37	0.096003163033167
100	76	37.5	-0.095537961921657
100	77	38	-0.041701838909646
100	78	38.5	0.0016648989170776
100	79	39	-0.13793586665226
100	80	39.5	-0.16340620670032
100	81	40	-0.10156224573914
100	82	40.5	-0.30693739128122
101	33	16	3.0727131223212
101	34	16.5	3.1570870766336
101	35	17	3.7503703209084
101	36	17.5	3.4367451840235
101	37	18	4.8051367945339
101	38	18.5	5.4909903700006
101	39	19	5.2514207798271
101	40	19.5	6.1410661847045
101	41	20	6.5015554482272
101	42	20.5	7.4019526637031
101	43	21	7.9967111047532
101	44	21.5	8.3495531077827
101	45	22	10.129429847778
101	46	22.5	9.8053497203328
101	47	23	10.32875384901
101	48	23.5	11.467298318837
101	49	24	11.587053758384
101	50	24.5	11.82704732983
101	51	25	11.593420838616
101	52	25.5	12.883794863715
101	53	26	13.296136230002
101	54	26.5	13.102331509984
101	55	27	4.3067295234356
101	56	27.5	3.8279680357065
101	57	28	3.2682571889643
101	58	28.5	3.7173275987413
101	59	29	3.455836860507
101	60	29.5	2.4887205461419
101	61	30	3.5259464368756
101	62	30.5	4.2492554599657
101	63	31	3.4307549099955
101	64	31.5	2.3774745244303
101	65	32	4.5323785044854
101	66	32.5	2.9230103783583
101	67	33	3.6149072002196
101	68	33.5	3.4753360528581
101	69	34	3.5567367927452
101	70	34.5	2.8606869934911
101	71	35	3.1813397706706
101	72	35.5	3.765756049693
101	73	36	3.5899090305817
101	74	36.5	3.0958396478878
101	75	37	3.9724658890117
101	76	37.5	2.8820475222927
101	77	38	3.1815760720388
101	78	38.5	3.4259905259123
101	79	39	2.6282668827685
101	80	39.5	2.4722571006091
101	81	40	2.809560203981
101	82	40.5	1.6440545751246
102	34	16.5	1.222376597012
102	35	17	2.2627367291376
102	36	17.5	3.4134972266149
102	37	18	4.4987311427802
102	38	18.5	5.4494313927106
102	39	19	6.4006966777326
102	40	19.5	7.1928994294844
102	41	20	6.9339680887608
102	42	20.5	6.7780279333791
102	43	21	6.6283131391108
102	44	21.5	6.4914279895258
102	45	22	6.3533169280941
102	46	22.5	6.389732883509
102	47	23	6.2651583193623
102	48	23.5	6.1063174628618
102	49	24	6.085191819833
102	50	24.5	6.1405694833689
102	51	25	6.0984070756879
102	52	25.5	6.0654968999288
102	53	26	6.4868372192253
102	54	26.5	7.0398802450092
102	55	27	7.7286868439189
102	56	27.5	7.7402818295106
102	57	28	7.7485378174184
102	58	28.5	7.794443250655
102	59	29	7.7722982259796
102	60	29.5	8.5923167222974
102	61	30	9.4803630234839
102	62	30.5	9.0435040485131
102	63	31	8.8726582209659
102	64	31.5	8.2425155534146
102	65	32	7.6902473312006
102	66	32.5	7.4199847820913
102	67	33	7.2491907927816
102	68	33.5	7.0061588905287
102	69	34	6.8708603442236
102	70	34.5	6.7086599940562
102	71	35	6.5942707973893
102	72	35.5	6.5047331205667
102	73	36	6.3630289509427
102	74	36.5	6.3553147902345
102	75	37	6.3239691898463
102	76	37.5	6.1820483732391
102	77	38	6.1504483949548
102	78	38.5	6.0989373255144
102	79	39	6.1003206240786
102	80	39.5	6.0929295676282
102	81	40	6.0617954817844
102	82	40.5	6.078080861273
103	35	17	2.0807202642513
103	36	17.5	2.3015209949545
103	37	18	2.1704678323306
103	38	18.5	1.9014004998608
103	39	19	1.9025305700442
103	40	19.5	1.5844055035036
103	41	20	-0.51786268144725
103	42	20.5	-0.31188031076345
103	43	21	-0.29942958853648
103	44	21.5	-0.27377029917005
103	45	22	-0.27622212286338
103	46	22.5	0.072831910829708
103	47	23	-0.24914912829341
103	48	23.5	-0.31768171300098
103	49	24	-0.042251286057596
103	50	24.5	0.11075532707181
103	51	25	-0.084324815362004
103	52	25.5	-0.065820351518086
103	53	26	0.84268063859298
103	54	26.5	1.1060860515678
103	55	27	1.3776131978194
103	56	27.5	0.023189971183433
103	57	28	0.01651197581552
103	58	28.5	0.091810866473242
103	59	29	-0.04429004935082
103	60	29.5	1.6400369926356
103	61	30	1.7760926023731
103	62	30.5	-0.87371794994162
103	63	31	-0.34169165509447
103	64	31.5	-1.2602853351025
103	65	32	-1.1045364444279
103	66	32.5	-0.54052509821864
103	67	33	-0.34158797861942
103	68	33.5	-0.48606380450586
103	69	34	-0.27059709261008
103	70	34.5	-0.32440070033484
103	71	35	-0.22877839333382
103	72	35.5	-0.17907535364523
103	73	36	-0.28340833924806
103	74	36.5	-0.015428321416447
103	75	37	-0.062691200776323
103	76	37.5	-0.28384163321437
103	77	38	-0.063199956568559
103	78	38.5	-0.10302213888093
103	79	39	0.0027665971284208
103	80	39.5	-0.014782112900747
103	81	40	-0.062268171687528
103	82	40.5	0.032570758977032
104	35	17	2.3548820857863
104	36	17.5	3.1716941421735
104	37	18	3.6886383437688
104	38	18.5	3.884963985717
104	39	19	4.3777766709134
104	40	19.5	4.23791292461
104	41	20	0.973
104	42	20.5	0.973
104	43	21	0.973
104	44	21.5	0.973
104	45	22	0.973
104	46	22.5	1.5544966487427
104	47	23	0.973
104	48	23.5	0.973
104	49	24	1.3624027381821
104	50	24.5	1.5915147622106
104	51	25	1.301205446332
104	52	25.5	1.3269988387154
104	53	26	2.765526809381
104	54	26.5	3.3584323475039
104	55	27	4.0914399652829
104	56	27.5	1.5694893153715
104	57	28	1.5576004795756
104	58	28.5	1.7022120149246
104	59	29	1.445348077382
104	60	29.5	4.9791980196533
104	61	30	5.7040045519361
104	62	30.5	0.973
104	63	31	0.973
104	64	31.5	0.973
104	65	32	0.973
104	66	32.5	0.973
104	67	33	0.973
104	68	33.5	0.973
104	69	34	0.973
104	70	34.5	0.973
104	71	35	0.973
104	72	35.5	0.973
104	73	36	0.973
104	74	36.5	1.4166627497972
104	75	37	1.3428857997242
104	76	37.5	0.973
104	77	38	1.334511786936
104	78	38.5	1.2737435685532
104	79	39	1.4293184122122
104	80	39.5	1.403112349449
104	81	40	1.3320306340664
104	82	40.5	1.4716598641494
105	39	19	1287.36321585
105	40	19.5	1287.3973129066
105	41	20	1287.4511138217
105	42	20.5	1287.5222543478
105	43	21	1287.6143088412
105	44	21.5	1287.7257522403
105	45	22	1287.8556762772
105	46	22.5	1288.0053717273
105	47	23	1288.1683776429
105	48	23.5	1288.3257390398
105	49	24	1288.4770477553
105	50	24.5	1288.624383638
105	51	25	1288.7678350392
105	52	25.5	1288.9082990704
105	53	26	1289.0473915294
105	54	26.5	1289.1910868547
105	55	27	1289.3419494666
105	56	27.5	1289.4997446948
105	57	28	1289.658405524
105	58	28.5	1289.8172138106
105	59	29	1289.977278357
105	60	29.5	1290.1420117291
105	61	30	1290.3197949451
105	62	30.5	1290.5073633424
105	63	31	1291.5497199157
105	64	31.5	1295.7613106546
105	65	32	1299.752265499
105	66	32.5	1303.2289065789
105	67	33	1305.4173334397
105	68	33.5	1307.5651558831
105	69	34	1308.3498108843
105	70	34.5	1307.6627501164
105	71	35	1306.9824109236
105	72	35.5	1305.191557868
105	73	36	1302.7013913749
105	74	36.5	1300.247668194
105	75	37	1297.8198588864
105	76	37.5	1295.4927444757
105	77	38	1293.4480060061
105	78	38.5	1292.298000835
105	79	39	1292.4106498562
105	80	39.5	1292.5225924873
105	81	40	1292.6340515797
105	82	40.5	1292.7452820124
106	39	19	1828.2263283413
106	40	19.5	1827.4100624938
106	41	20	1826.1220964929
106	42	20.5	1824.4190292023
106	43	21	1822.215292383
106	44	21.5	1819.5473952154
106	45	22	1816.4370811675
106	46	22.5	1812.853449747
106	47	23	1808.9511726825
106	48	23.5	1805.1840224685
106	49	24	1801.5617703097
106	50	24.5	1798.0346257044
106	51	25	1794.6004735725
106	52	25.5	1791.2378375269
106	53	26	1787.9080362115
106	54	26.5	1784.4680446638
106	55	27	1780.8564719912
106	56	27.5	1777.0789360814
106	57	28	1773.2806781335
106	58	28.5	1769.4788901303
106	59	29	1765.6470279191
106	60	29.5	1761.7033964442
106	61	30	1757.447358476
106	62	30.5	1752.9570683399
106	63	31	1748.9754203232
106	64	31.5	1748.7209764961
106	65	32	1749.1632989468
106	66	32.5	1748.7461698456
106	67	33	1745.6684658481
106	68	33.5	1742.6478660572
106	69	34	1739.4240005063
106	70	34.5	1735.9781804308
106	71	35	1732.5660711108
106	72	35.5	1729.8725151159
106	73	36	1727.6282909922
106	74	36.5	1725.4169108421
106	75	37	1723.2288851701
106	76	37.5	1720.997326334
106	77	38	1718.5755979512
106	78	38.5	1715.6981774261
106	79	39	1712.5749913808
106	80	39.5	1709.471389954
106	81	40	1706.381194598
106	82	40.5	1703.2973388229
107	40	19.5	2.065513285686
107	41	20	2.9240993874418
107	42	20.5	3.7950039299941
107	43	21	4.7734805876311
107	44	21.5	5.6879023730467
107	45	22	6.5898310169941
107	46	22.5	7.5990618778989
107	47	23	7.7721649363796
107	48	23.5	7.3721099343199
107	49	24	7.149379716798
107	50	24.5	6.9863222823231
107	51	25	6.8298737109141
107	52	25.5	6.6916455239091
107	53	26	6.6829343015967
107	54	26.5	7.0223018462572
107	55	27	7.3812398442971
107	56	27.5	7.4859868196552
107	57	28	7.6493453207604
107	58	28.5	7.6085962153345
107	59	29	7.692106977857
107	60	29.5	8.1960712383326
107	61	30	8.8076184742723
107	62	30.5	8.8232325907748
107	63	31	8.6536523406029
107	64	31.5	8.3975680951608
107	65	32	7.9078427221458
107	66	32.5	7.6718454924393
107	67	33	7.4304328828099
107	68	33.5	7.3892073234266
107	69	34	7.1827348395662
107	70	34.5	6.9367784754076
107	71	35	6.8914933502554
107	72	35.5	6.8103046186079
107	73	36	6.5831041154331
107	74	36.5	6.5493105384325
107	75	37	6.4770235902395
107	76	37.5	6.3563266437398
107	77	38	6.3084773316172
107	78	38.5	6.2440419672607
107	79	39	6.254683664116
107	80	39.5	6.1531057115766
107	81	40	6.1529508502927
107	82	40.5	6.1525457857777
108	41	20	1.7171722035117
108	42	20.5	1.7418090851046
108	43	21	1.9569533152739
108	44	21.5	1.8288435708312
108	45	22	1.8038572878949
108	46	22.5	2.0184617218096
108	47	23	0.3462061169614
108	48	23.5	-0.80011000411945
108	49	24	-0.44546043504379
108	50	24.5	-0.32611486894978
108	51	25	-0.31289714281812
108	52	25.5	-0.27645637400994
108	53	26	-0.017422444624831
108	54	26.5	0.67873508932103
108	55	27	0.71787599607982
108	56	27.5	0.2094939507161
108	57	28	0.32671700221056
108	58	28.5	-0.081498210851787
108	59	29	0.16702152504502
108	60	29.5	1.0079285209511
108	61	30	1.2230944718794
108	62	30.5	0.031228233005013
108	63	31	-0.33916050034381
108	64	31.5	-0.5121684908843
108	65	32	-0.97945074602991
108	66	32.5	-0.47199445941309
108	67	33	-0.4828252192588
108	68	33.5	-0.082451118766572
108	69	34	-0.4129449677207
108	70	34.5	-0.49191272831718
108	71	35	-0.090570250304387
108	72	35.5	-0.16237746329512
108	73	36	-0.45440100634965
108	74	36.5	-0.067587154001057
108	75	37	-0.14457389638602
108	76	37.5	-0.24139389299944
108	77	38	-0.095698624245113
108	78	38.5	-0.12887072871299
108	79	39	0.021283393710515
108	80	39.5	-0.20315590507876
108	81	40	-0.00030972256787365
108	82	40.5	-0.00081012903002531
109	41	20	2.4634731273316
109	42	20.5	2.8911715661316
109	43	21	3.6016170273511
109	44	21.5	3.9083340027807
109	45	22	4.3191240792421
109	46	22.5	5.2136739820135
109	47	23	2.1767759861862
109	48	23.5	0.973
109	49	24	0.973
109	50	24.5	0.973
109	51	25	0.973
109	52	25.5	0.973
109	53	26	1.4318967657698
109	54	26.5	2.6294197387639
109	55	27	2.780235558582
109	56	27.5	1.8878311193925
109	57	28	2.1226518125731
109	58	28.5	1.3682875896639
109	59	29	1.832735819701
109	60	29.5	3.547154063316
109	61	30	4.194181201873
109	62	30.5	1.6654899682822
109	63	31	0.973
109	64	31.5	0.973
109	65	32	0.973
109	66	32.5	0.973
109	67	33	0.973
109	68	33.5	1.3568970826736
109	69	34	0.973
109	70	34.5	0.973
109	71	35	1.3222572393175
109	72	35.5	0.973
109	73	36	0.973
109	74	36.5	1.345211588078
109	75	37	1.2218786289425
109	76	37.5	0.973
109	77	38	1.2920186436612
109	78	38.5	1.2397750924276
109	79	39	1.4664122548565
109	80	39.5	0.973
109	81	40	1.4278781202724
109	82	40.5	1.4271123760589

