version 3
run Default-0-20230528-23:06:59-1689
attr configname Default
attr datetime 20230528-23:06:59
attr datetimef 20230528-230659
attr experiment Default
attr inifile omnetpp.ini
attr iterationvars "$useAcks=false, $0=false"
attr iterationvarsd useAcks=false/false
attr iterationvarsf useAcks=false,false-
attr measurement "$useAcks=false, $0=false"
attr network task_offloading
attr processid 1689
attr repetition 0
attr replication #0
attr resultdir results
attr runnumber 0
attr seedset 100
itervar useAcks false
config image-path ../../../inet4.5/images:../../../veins-5.2/veins-veins-5.2/images
config cmdenv-express-mode true
config cmdenv-autoflush true
config cmdenv-status-frequency 1s
config **.cmdenv-log-level info
config **.result-recording-modes all
config seed-set 100
config image-path ../../images
config network task_offloading
config debug-on-errors true
config print-undisposed true
config **.scalar-recording true
config **.vector-recording true
config *.playgroundSizeX 3500m
config *.playgroundSizeY 3500m
config *.playgroundSizeZ 50m
config *.annotations.draw true
config *.obstacles.obstacles "xmldoc(\"config.xml\", \"//AnalogueModel[@type='SimpleObstacleShadowing']/obstacles\")"
config *.manager.updateInterval 0.1s
config *.manager.host "\"localhost\""
config *.manager.port 9999
config *.manager.autoShutdown true
config *.manager.launchConfig "xmldoc(\"task_offloading.launchd.xml\")"
config *.connectionManager.sendDirect true
config *.connectionManager.maxInterfDist 2600m
config *.connectionManager.drawMaxIntfDist false
config *.**.nic.mac1609_4.useServiceChannel false
config *.**.nic.mac1609_4.txPower 20mW
config *.**.nic.mac1609_4.bitrate 6Mbps
config *.**.nic.phy80211p.minPowerLevel -110dBm
config *.**.nic.phy80211p.useNoiseFloor true
config *.**.nic.phy80211p.noiseFloor -98dBm
config *.**.nic.phy80211p.decider "xmldoc(\"config.xml\")"
config *.**.nic.phy80211p.analogueModels "xmldoc(\"config.xml\")"
config *.**.nic.phy80211p.usePropagationDelay true
config *.**.nic.phy80211p.antenna "xmldoc(\"antenna.xml\", \"/root/Antenna[@id='monopole']\")"
config *.**[*].nic.phy80211p.antennaOffsetY "0 m"
config *.**[*].nic.phy80211p.antennaOffsetZ "1.895 m"
config *.**.nic.mac1609_4.useAcks false
config *.veinsApp.useAcks false
config *.manager.moduleDisplayString "\"BUS='i=veins/node/car_vs' CAR='i=veins/node/car_vs'\""
config *.manager.moduleType "\"BUS=org.car2x.veins.nodes.Car CAR=org.car2x.veins.nodes.Car\""
config *.manager.moduleName "\"BUS=bus CAR=car\""
config *.bus[*].applType "\"TaskGenerator\""
config *.car[*].applType "\"Worker\""
config *.**[*].appl.headerLength "80 bit"
config *.**[*].appl.sendBeacons false
config *.**[*].appl.dataOnSch false
config *.**[*].appl.beaconInterval 1s
config *.**[*].veinsmobility.x 0
config *.**[*].veinsmobility.y 0
config *.**[*].veinsmobility.z 0
config *.**[*].veinsmobility.setHostSpeed false
config *.bus[*].appl.randomTimeFirstHelpMessage "uniform(30s, 40s)"
config *.bus[*].appl.randomTimeHelpRequest "uniform(1s, 2s)"
config *.bus[*].appl.busWaitingTimeForAvailability "uniform(100ms, 200ms)"
config *.bus[*].appl.dataComputationThreshold "uniform(500ms, 600ms)"
config *.bus[*].appl.computationLoad 15MB
config *.bus[*].appl.busVehicleLoad 4MB
config *.bus[*].appl.minimumVehicleLoadRequested 700kB
config *.loadBalancingAlgorithm.typename ComputationTime
config *.car[*].appl.stillAvailableProbability "uniform(0, 1)"
config *.car[*].appl.stillAvailableThreshold 0.5
config *.car[*].appl.commonVehicleLoad 1MB
config *.car[*].appl.vehicleAvailabilityMessageTime "uniform(0ms, 100ms)"
config *.car[*].appl.ackMessageThreshold "uniform(300ms, 400ms)"
config *.car[*].appl.randomVehicleFreeLoadPercentage "uniform(0, 1)"
config *.car[*].appl.randomVehicleCpuFreq "uniform(1.20GHz, 2.70GHz)"

par task_offloading.car[3].appl typename "\"task_offloading.app.Worker\""
par task_offloading.car[3].appl headerLength 80bit
attr unit bit
par task_offloading.car[3].appl sendBeacons false
par task_offloading.car[3].appl beaconLengthBits 256bit
attr unit bit
par task_offloading.car[3].appl beaconUserPriority 7
par task_offloading.car[3].appl beaconInterval 1s
attr unit s
par task_offloading.car[3].appl dataLengthBits 0bit
attr unit bit
par task_offloading.car[3].appl dataOnSch false
par task_offloading.car[3].appl dataUserPriority 7
par task_offloading.car[3].appl avoidBeaconSynchronization true
par task_offloading.car[3].appl sendWSA false
par task_offloading.car[3].appl wsaLengthBits 250bit
attr unit bit
par task_offloading.car[3].appl wsaInterval 1s
attr unit s
par task_offloading.car[3].appl randomVehicleCpuFreq "uniform(1.2GHz, 2.7GHz)"
attr unit Hz
par task_offloading.car[3].appl randomVehicleFreeLoadPercentage "uniform(0, 1)"
par task_offloading.car[3].appl commonVehicleLoad 1e+06byte
attr unit byte
par task_offloading.car[3].appl useAcks false
par task_offloading.car[3].appl stillAvailableProbability "uniform(0, 1)"
par task_offloading.car[3].appl stillAvailableThreshold 0.5
par task_offloading.car[3].appl vehicleAvailabilityMessageTime 0.0063681s
attr unit s
par task_offloading.car[3].appl ackMessageThreshold "uniform(300ms, 400ms)"
attr unit s
scalar task_offloading.car[3].appl generatedWSMs 0
scalar task_offloading.car[3].appl receivedWSMs 5
scalar task_offloading.car[3].appl generatedBSMs 0
scalar task_offloading.car[3].appl receivedBSMs 0
scalar task_offloading.car[3].appl generatedWSAs 0
scalar task_offloading.car[3].appl receivedWSAs 0
statistic task_offloading.car[3].appl availableMessageLoad:stats
field count 0
field mean -nan
field stddev -nan
field min -nan
field max -nan
field sum 0
field sqrsum 0
attr interpolationmode none
attr recordingmode stats
attr source available_message_load
statistic task_offloading.car[3].appl availableMessageSent:stats
field count 0
field mean -nan
field stddev -nan
field min -nan
field max -nan
field sum 0
field sqrsum 0
attr interpolationmode none
attr recordingmode stats
attr source available_message_sent
statistic task_offloading.car[3].appl startResponseMessages:stats
field count 0
field mean -nan
field stddev -nan
field min -nan
field max -nan
field sum 0
field sqrsum 0
attr interpolationmode none
attr recordingmode stats
attr source start_getting_response
statistic task_offloading.car[3].appl stopDataMessages:stats
field count 2
field mean 5.5
field stddev 7.778174593052
field min 0
field max 11
field sum 11
field sqrsum 121
attr interpolationmode none
attr recordingmode stats
attr source stop_sending_data
statistic task_offloading.car[3].appl stopHelpRequests:stats
field count 0
field mean -nan
field stddev -nan
field min -nan
field max -nan
field sum 0
field sqrsum 0
attr interpolationmode none
attr recordingmode stats
attr source stop_bus_help_rq
par task_offloading.car[3].nic.phy80211p typename "\"org.car2x.veins.modules.phy.PhyLayer80211p\""
par task_offloading.car[3].nic.phy80211p recordStats false
par task_offloading.car[3].nic.phy80211p usePropagationDelay true
par task_offloading.car[3].nic.phy80211p noiseFloor -98dBm
attr unit dBm
par task_offloading.car[3].nic.phy80211p useNoiseFloor true
par task_offloading.car[3].nic.phy80211p antenna "<Antenna type=\"SampledAntenna1D\" id=\"monopole\">...</Antenna> at /home/debbo/workspace/task_offloading/simulations/task_offloading//antenna.xml:35"
par task_offloading.car[3].nic.phy80211p antennaOffsetX 0m
attr unit m
par task_offloading.car[3].nic.phy80211p antennaOffsetY 0m
attr unit m
par task_offloading.car[3].nic.phy80211p antennaOffsetZ 1.895m
attr unit m
par task_offloading.car[3].nic.phy80211p antennaOffsetYaw 0rad
attr unit rad
par task_offloading.car[3].nic.phy80211p analogueModels "<root>...</root> at /home/debbo/workspace/task_offloading/simulations/task_offloading//config.xml:34"
par task_offloading.car[3].nic.phy80211p decider "<root>...</root> at /home/debbo/workspace/task_offloading/simulations/task_offloading//config.xml:34"
par task_offloading.car[3].nic.phy80211p minPowerLevel -110dBm
attr unit dBm
par task_offloading.car[3].nic.phy80211p timeRXToTX 0s
attr unit s
par task_offloading.car[3].nic.phy80211p timeRXToSleep 0s
attr unit s
par task_offloading.car[3].nic.phy80211p timeTXToRX 0s
attr unit s
par task_offloading.car[3].nic.phy80211p timeTXToSleep 0s
attr unit s
par task_offloading.car[3].nic.phy80211p timeSleepToRX 0s
attr unit s
par task_offloading.car[3].nic.phy80211p timeSleepToTX 0s
attr unit s
par task_offloading.car[3].nic.phy80211p initialRadioState 0
par task_offloading.car[3].nic.phy80211p radioMinAtt 1
par task_offloading.car[3].nic.phy80211p radioMaxAtt 0
par task_offloading.car[3].nic.phy80211p nbRadioChannels 1
par task_offloading.car[3].nic.phy80211p initialRadioChannel 0
par task_offloading.car[3].nic.phy80211p ccaThreshold -65dBm
attr unit dBm
par task_offloading.car[3].nic.phy80211p collectCollisionStatistics false
par task_offloading.car[3].nic.phy80211p allowTxDuringRx false
scalar task_offloading.car[3].nic.phy80211p busyTime 0.11672099456099
par task_offloading.car[3].nic.mac1609_4 typename "\"org.car2x.veins.modules.mac.ieee80211p.Mac1609_4\""
par task_offloading.car[3].nic.mac1609_4 notAffectedByHostState false
par task_offloading.car[3].nic.mac1609_4 headerLength 0bit
attr unit bit
par task_offloading.car[3].nic.mac1609_4 address "\"auto\""
par task_offloading.car[3].nic.mac1609_4 useServiceChannel false
par task_offloading.car[3].nic.mac1609_4 serviceChannel 1
par task_offloading.car[3].nic.mac1609_4 bitrate 6000000bps
attr unit bps
par task_offloading.car[3].nic.mac1609_4 syncOffset 0.0003s
attr unit s
par task_offloading.car[3].nic.mac1609_4 txPower 20mW
attr unit mW
par task_offloading.car[3].nic.mac1609_4 queueSize 0
par task_offloading.car[3].nic.mac1609_4 dot11RTSThreshold 12000bit
attr unit bit
par task_offloading.car[3].nic.mac1609_4 dot11ShortRetryLimit 7
par task_offloading.car[3].nic.mac1609_4 dot11LongRetryLimit 4
par task_offloading.car[3].nic.mac1609_4 ackLength 112bit
attr unit bit
par task_offloading.car[3].nic.mac1609_4 useAcks false
par task_offloading.car[3].nic.mac1609_4 frameErrorRate 0
par task_offloading.car[3].nic.mac1609_4 ackErrorRate 0
scalar task_offloading.car[3].nic.mac1609_4 ReceivedUnicastPackets 0
scalar task_offloading.car[3].nic.mac1609_4 ReceivedBroadcasts 5
scalar task_offloading.car[3].nic.mac1609_4 SentPackets 0
scalar task_offloading.car[3].nic.mac1609_4 SentAcknowledgements 0
scalar task_offloading.car[3].nic.mac1609_4 RetriesExceeded 0
scalar task_offloading.car[3].nic.mac1609_4 SNIRLostPackets 12
scalar task_offloading.car[3].nic.mac1609_4 RXTXLostPackets 0
scalar task_offloading.car[3].nic.mac1609_4 TotalLostPackets 12
scalar task_offloading.car[3].nic.mac1609_4 DroppedPacketsInMac 0
scalar task_offloading.car[3].nic.mac1609_4 TooLittleTime 0
scalar task_offloading.car[3].nic.mac1609_4 TimesIntoBackoff 0
scalar task_offloading.car[3].nic.mac1609_4 SlotsBackoff 0
scalar task_offloading.car[3].nic.mac1609_4 NumInternalContention 0
scalar task_offloading.car[3].nic.mac1609_4 totalBusyTime 15.021992
scalar task_offloading.car[3].nic.mac1609_4 retriesExceeded:count 0
attr recordingmode count
attr source org_car2x_veins_modules_mac_sigRetriesExceeded
scalar task_offloading.car[3].nic.mac1609_4 sentAcks:count 0
attr recordingmode count
attr source org_car2x_veins_modules_mac_sigSentAck
scalar task_offloading.car[3].nic.mac1609_4 sentPackets:count 0
attr recordingmode count
attr source org_car2x_veins_modules_mac_sigSentPacket
scalar task_offloading.car[3].nic.mac1609_4 collisions:count 0
attr recordingmode count
attr source org_car2x_veins_modules_mac_sigCollision
scalar task_offloading.car[3].nic.mac1609_4 channelBusy:timeavg 0.11672099456099
attr recordingmode timeavg
attr source org_car2x_veins_modules_mac_sigChannelBusy
par task_offloading.car[3].nic typename "\"org.car2x.veins.modules.nic.Nic80211p\""
par task_offloading.car[3].nic connectionManagerName "\"connectionManager\""
par task_offloading.car[3].veinsmobility typename "\"org.car2x.veins.modules.mobility.traci.TraCIMobility\""
par task_offloading.car[3].veinsmobility notAffectedByHostState true
par task_offloading.car[3].veinsmobility x 0
par task_offloading.car[3].veinsmobility y 0
par task_offloading.car[3].veinsmobility z 0
par task_offloading.car[3].veinsmobility xOrientation 1
par task_offloading.car[3].veinsmobility yOrientation 0
par task_offloading.car[3].veinsmobility zOrientation 0
par task_offloading.car[3].veinsmobility hostPositionOffset 0m
attr unit m
par task_offloading.car[3].veinsmobility setHostSpeed false
par task_offloading.car[3].veinsmobility accidentCount 0
par task_offloading.car[3].veinsmobility accidentStart 56.7397s
attr unit s
par task_offloading.car[3].veinsmobility accidentDuration "uniform(30s, 60s)"
attr unit s
par task_offloading.car[3].veinsmobility accidentInterval "uniform(30s, 60s)"
attr unit s
scalar task_offloading.car[3].veinsmobility startTime 0.1
scalar task_offloading.car[3].veinsmobility totalTime 128.6
scalar task_offloading.car[3].veinsmobility stopTime 128.8
scalar task_offloading.car[3].veinsmobility minSpeed 0.2489653699901
scalar task_offloading.car[3].veinsmobility maxSpeed 23.473379769084
scalar task_offloading.car[3].veinsmobility totalDistance 2085.2745104309
scalar task_offloading.car[3].veinsmobility totalCO2Emission 593.14401248999
par task_offloading.car[3] typename "\"org.car2x.veins.nodes.Car\""
par task_offloading.car[3] applType "\"Worker\""
par task_offloading.car[3] nicType "\"Nic80211p\""
par task_offloading.car[3] veinsmobilityType "\"org.car2x.veins.modules.mobility.traci.TraCIMobility\""
par task_offloading.car[5].appl typename "\"task_offloading.app.Worker\""
par task_offloading.car[5].appl headerLength 80bit
attr unit bit
par task_offloading.car[5].appl sendBeacons false
par task_offloading.car[5].appl beaconLengthBits 256bit
attr unit bit
par task_offloading.car[5].appl beaconUserPriority 7
par task_offloading.car[5].appl beaconInterval 1s
attr unit s
par task_offloading.car[5].appl dataLengthBits 0bit
attr unit bit
par task_offloading.car[5].appl dataOnSch false
par task_offloading.car[5].appl dataUserPriority 7
par task_offloading.car[5].appl avoidBeaconSynchronization true
par task_offloading.car[5].appl sendWSA false
par task_offloading.car[5].appl wsaLengthBits 250bit
attr unit bit
par task_offloading.car[5].appl wsaInterval 1s
attr unit s
par task_offloading.car[5].appl randomVehicleCpuFreq "uniform(1.2GHz, 2.7GHz)"
attr unit Hz
par task_offloading.car[5].appl randomVehicleFreeLoadPercentage "uniform(0, 1)"
par task_offloading.car[5].appl commonVehicleLoad 1e+06byte
attr unit byte
par task_offloading.car[5].appl useAcks false
par task_offloading.car[5].appl stillAvailableProbability "uniform(0, 1)"
par task_offloading.car[5].appl stillAvailableThreshold 0.5
par task_offloading.car[5].appl vehicleAvailabilityMessageTime 0.0795663s
attr unit s
par task_offloading.car[5].appl ackMessageThreshold "uniform(300ms, 400ms)"
attr unit s
scalar task_offloading.car[5].appl generatedWSMs 0
scalar task_offloading.car[5].appl receivedWSMs 4
scalar task_offloading.car[5].appl generatedBSMs 0
scalar task_offloading.car[5].appl receivedBSMs 0
scalar task_offloading.car[5].appl generatedWSAs 0
scalar task_offloading.car[5].appl receivedWSAs 0
statistic task_offloading.car[5].appl availableMessageLoad:stats
field count 0
field mean -nan
field stddev -nan
field min -nan
field max -nan
field sum 0
field sqrsum 0
attr interpolationmode none
attr recordingmode stats
attr source available_message_load
statistic task_offloading.car[5].appl availableMessageSent:stats
field count 0
field mean -nan
field stddev -nan
field min -nan
field max -nan
field sum 0
field sqrsum 0
attr interpolationmode none
attr recordingmode stats
attr source available_message_sent
statistic task_offloading.car[5].appl startResponseMessages:stats
field count 0
field mean -nan
field stddev -nan
field min -nan
field max -nan
field sum 0
field sqrsum 0
attr interpolationmode none
attr recordingmode stats
attr source start_getting_response
statistic task_offloading.car[5].appl stopDataMessages:stats
field count 2
field mean 5.5
field stddev 7.778174593052
field min 0
field max 11
field sum 11
field sqrsum 121
attr interpolationmode none
attr recordingmode stats
attr source stop_sending_data
statistic task_offloading.car[5].appl stopHelpRequests:stats
field count 0
field mean -nan
field stddev -nan
field min -nan
field max -nan
field sum 0
field sqrsum 0
attr interpolationmode none
attr recordingmode stats
attr source stop_bus_help_rq
par task_offloading.car[5].nic.phy80211p typename "\"org.car2x.veins.modules.phy.PhyLayer80211p\""
par task_offloading.car[5].nic.phy80211p recordStats false
par task_offloading.car[5].nic.phy80211p usePropagationDelay true
par task_offloading.car[5].nic.phy80211p noiseFloor -98dBm
attr unit dBm
par task_offloading.car[5].nic.phy80211p useNoiseFloor true
par task_offloading.car[5].nic.phy80211p antenna "<Antenna type=\"SampledAntenna1D\" id=\"monopole\">...</Antenna> at /home/debbo/workspace/task_offloading/simulations/task_offloading//antenna.xml:35"
par task_offloading.car[5].nic.phy80211p antennaOffsetX 0m
attr unit m
par task_offloading.car[5].nic.phy80211p antennaOffsetY 0m
attr unit m
par task_offloading.car[5].nic.phy80211p antennaOffsetZ 1.895m
attr unit m
par task_offloading.car[5].nic.phy80211p antennaOffsetYaw 0rad
attr unit rad
par task_offloading.car[5].nic.phy80211p analogueModels "<root>...</root> at /home/debbo/workspace/task_offloading/simulations/task_offloading//config.xml:34"
par task_offloading.car[5].nic.phy80211p decider "<root>...</root> at /home/debbo/workspace/task_offloading/simulations/task_offloading//config.xml:34"
par task_offloading.car[5].nic.phy80211p minPowerLevel -110dBm
attr unit dBm
par task_offloading.car[5].nic.phy80211p timeRXToTX 0s
attr unit s
par task_offloading.car[5].nic.phy80211p timeRXToSleep 0s
attr unit s
par task_offloading.car[5].nic.phy80211p timeTXToRX 0s
attr unit s
par task_offloading.car[5].nic.phy80211p timeTXToSleep 0s
attr unit s
par task_offloading.car[5].nic.phy80211p timeSleepToRX 0s
attr unit s
par task_offloading.car[5].nic.phy80211p timeSleepToTX 0s
attr unit s
par task_offloading.car[5].nic.phy80211p initialRadioState 0
par task_offloading.car[5].nic.phy80211p radioMinAtt 1
par task_offloading.car[5].nic.phy80211p radioMaxAtt 0
par task_offloading.car[5].nic.phy80211p nbRadioChannels 1
par task_offloading.car[5].nic.phy80211p initialRadioChannel 0
par task_offloading.car[5].nic.phy80211p ccaThreshold -65dBm
attr unit dBm
par task_offloading.car[5].nic.phy80211p collectCollisionStatistics false
par task_offloading.car[5].nic.phy80211p allowTxDuringRx false
scalar task_offloading.car[5].nic.phy80211p busyTime 0.051683262927895
par task_offloading.car[5].nic.mac1609_4 typename "\"org.car2x.veins.modules.mac.ieee80211p.Mac1609_4\""
par task_offloading.car[5].nic.mac1609_4 notAffectedByHostState false
par task_offloading.car[5].nic.mac1609_4 headerLength 0bit
attr unit bit
par task_offloading.car[5].nic.mac1609_4 address "\"auto\""
par task_offloading.car[5].nic.mac1609_4 useServiceChannel false
par task_offloading.car[5].nic.mac1609_4 serviceChannel 1
par task_offloading.car[5].nic.mac1609_4 bitrate 6000000bps
attr unit bps
par task_offloading.car[5].nic.mac1609_4 syncOffset 0.0003s
attr unit s
par task_offloading.car[5].nic.mac1609_4 txPower 20mW
attr unit mW
par task_offloading.car[5].nic.mac1609_4 queueSize 0
par task_offloading.car[5].nic.mac1609_4 dot11RTSThreshold 12000bit
attr unit bit
par task_offloading.car[5].nic.mac1609_4 dot11ShortRetryLimit 7
par task_offloading.car[5].nic.mac1609_4 dot11LongRetryLimit 4
par task_offloading.car[5].nic.mac1609_4 ackLength 112bit
attr unit bit
par task_offloading.car[5].nic.mac1609_4 useAcks false
par task_offloading.car[5].nic.mac1609_4 frameErrorRate 0
par task_offloading.car[5].nic.mac1609_4 ackErrorRate 0
scalar task_offloading.car[5].nic.mac1609_4 ReceivedUnicastPackets 0
scalar task_offloading.car[5].nic.mac1609_4 ReceivedBroadcasts 4
scalar task_offloading.car[5].nic.mac1609_4 SentPackets 0
scalar task_offloading.car[5].nic.mac1609_4 SentAcknowledgements 0
scalar task_offloading.car[5].nic.mac1609_4 RetriesExceeded 0
scalar task_offloading.car[5].nic.mac1609_4 SNIRLostPackets 7
scalar task_offloading.car[5].nic.mac1609_4 RXTXLostPackets 0
scalar task_offloading.car[5].nic.mac1609_4 TotalLostPackets 7
scalar task_offloading.car[5].nic.mac1609_4 DroppedPacketsInMac 0
scalar task_offloading.car[5].nic.mac1609_4 TooLittleTime 0
scalar task_offloading.car[5].nic.mac1609_4 TimesIntoBackoff 0
scalar task_offloading.car[5].nic.mac1609_4 SlotsBackoff 0
scalar task_offloading.car[5].nic.mac1609_4 NumInternalContention 0
scalar task_offloading.car[5].nic.mac1609_4 totalBusyTime 7.096112
scalar task_offloading.car[5].nic.mac1609_4 retriesExceeded:count 0
attr recordingmode count
attr source org_car2x_veins_modules_mac_sigRetriesExceeded
scalar task_offloading.car[5].nic.mac1609_4 sentAcks:count 0
attr recordingmode count
attr source org_car2x_veins_modules_mac_sigSentAck
scalar task_offloading.car[5].nic.mac1609_4 sentPackets:count 0
attr recordingmode count
attr source org_car2x_veins_modules_mac_sigSentPacket
scalar task_offloading.car[5].nic.mac1609_4 collisions:count 0
attr recordingmode count
attr source org_car2x_veins_modules_mac_sigCollision
scalar task_offloading.car[5].nic.mac1609_4 channelBusy:timeavg 0.051683262927895
attr recordingmode timeavg
attr source org_car2x_veins_modules_mac_sigChannelBusy
par task_offloading.car[5].nic typename "\"org.car2x.veins.modules.nic.Nic80211p\""
par task_offloading.car[5].nic connectionManagerName "\"connectionManager\""
par task_offloading.car[5].veinsmobility typename "\"org.car2x.veins.modules.mobility.traci.TraCIMobility\""
par task_offloading.car[5].veinsmobility notAffectedByHostState true
par task_offloading.car[5].veinsmobility x 0
par task_offloading.car[5].veinsmobility y 0
par task_offloading.car[5].veinsmobility z 0
par task_offloading.car[5].veinsmobility xOrientation 1
par task_offloading.car[5].veinsmobility yOrientation 0
par task_offloading.car[5].veinsmobility zOrientation 0
par task_offloading.car[5].veinsmobility hostPositionOffset 0m
attr unit m
par task_offloading.car[5].veinsmobility setHostSpeed false
par task_offloading.car[5].veinsmobility accidentCount 0
par task_offloading.car[5].veinsmobility accidentStart 34.262s
attr unit s
par task_offloading.car[5].veinsmobility accidentDuration "uniform(30s, 60s)"
attr unit s
par task_offloading.car[5].veinsmobility accidentInterval "uniform(30s, 60s)"
attr unit s
scalar task_offloading.car[5].veinsmobility startTime 2.7
scalar task_offloading.car[5].veinsmobility totalTime 137.2
scalar task_offloading.car[5].veinsmobility stopTime 140
scalar task_offloading.car[5].veinsmobility minSpeed 0.24720221750531
scalar task_offloading.car[5].veinsmobility maxSpeed 21.948633830522
scalar task_offloading.car[5].veinsmobility totalDistance 2084.8192565672
scalar task_offloading.car[5].veinsmobility totalCO2Emission 520.71899439484
par task_offloading.car[5] typename "\"org.car2x.veins.nodes.Car\""
par task_offloading.car[5] applType "\"Worker\""
par task_offloading.car[5] nicType "\"Nic80211p\""
par task_offloading.car[5] veinsmobilityType "\"org.car2x.veins.modules.mobility.traci.TraCIMobility\""
par task_offloading.car[9].appl typename "\"task_offloading.app.Worker\""
par task_offloading.car[9].appl headerLength 80bit
attr unit bit
par task_offloading.car[9].appl sendBeacons false
par task_offloading.car[9].appl beaconLengthBits 256bit
attr unit bit
par task_offloading.car[9].appl beaconUserPriority 7
par task_offloading.car[9].appl beaconInterval 1s
attr unit s
par task_offloading.car[9].appl dataLengthBits 0bit
attr unit bit
par task_offloading.car[9].appl dataOnSch false
par task_offloading.car[9].appl dataUserPriority 7
par task_offloading.car[9].appl avoidBeaconSynchronization true
par task_offloading.car[9].appl sendWSA false
par task_offloading.car[9].appl wsaLengthBits 250bit
attr unit bit
par task_offloading.car[9].appl wsaInterval 1s
attr unit s
par task_offloading.car[9].appl randomVehicleCpuFreq "uniform(1.2GHz, 2.7GHz)"
attr unit Hz
par task_offloading.car[9].appl randomVehicleFreeLoadPercentage "uniform(0, 1)"
par task_offloading.car[9].appl commonVehicleLoad 1e+06byte
attr unit byte
par task_offloading.car[9].appl useAcks false
par task_offloading.car[9].appl stillAvailableProbability "uniform(0, 1)"
par task_offloading.car[9].appl stillAvailableThreshold 0.5
par task_offloading.car[9].appl vehicleAvailabilityMessageTime 0.0570216s
attr unit s
par task_offloading.car[9].appl ackMessageThreshold "uniform(300ms, 400ms)"
attr unit s
scalar task_offloading.car[9].appl generatedWSMs 0
scalar task_offloading.car[9].appl receivedWSMs 1
scalar task_offloading.car[9].appl generatedBSMs 0
scalar task_offloading.car[9].appl receivedBSMs 0
scalar task_offloading.car[9].appl generatedWSAs 0
scalar task_offloading.car[9].appl receivedWSAs 0
statistic task_offloading.car[9].appl availableMessageLoad:stats
field count 0
field mean -nan
field stddev -nan
field min -nan
field max -nan
field sum 0
field sqrsum 0
attr interpolationmode none
attr recordingmode stats
attr source available_message_load
statistic task_offloading.car[9].appl availableMessageSent:stats
field count 0
field mean -nan
field stddev -nan
field min -nan
field max -nan
field sum 0
field sqrsum 0
attr interpolationmode none
attr recordingmode stats
attr source available_message_sent
statistic task_offloading.car[9].appl startResponseMessages:stats
field count 0
field mean -nan
field stddev -nan
field min -nan
field max -nan
field sum 0
field sqrsum 0
attr interpolationmode none
attr recordingmode stats
attr source start_getting_response
statistic task_offloading.car[9].appl stopDataMessages:stats
field count 0
field mean -nan
field stddev -nan
field min -nan
field max -nan
field sum 0
field sqrsum 0
attr interpolationmode none
attr recordingmode stats
attr source stop_sending_data
statistic task_offloading.car[9].appl stopHelpRequests:stats
field count 0
field mean -nan
field stddev -nan
field min -nan
field max -nan
field sum 0
field sqrsum 0
attr interpolationmode none
attr recordingmode stats
attr source stop_bus_help_rq
par task_offloading.car[9].nic.phy80211p typename "\"org.car2x.veins.modules.phy.PhyLayer80211p\""
par task_offloading.car[9].nic.phy80211p recordStats false
par task_offloading.car[9].nic.phy80211p usePropagationDelay true
par task_offloading.car[9].nic.phy80211p noiseFloor -98dBm
attr unit dBm
par task_offloading.car[9].nic.phy80211p useNoiseFloor true
par task_offloading.car[9].nic.phy80211p antenna "<Antenna type=\"SampledAntenna1D\" id=\"monopole\">...</Antenna> at /home/debbo/workspace/task_offloading/simulations/task_offloading//antenna.xml:35"
par task_offloading.car[9].nic.phy80211p antennaOffsetX 0m
attr unit m
par task_offloading.car[9].nic.phy80211p antennaOffsetY 0m
attr unit m
par task_offloading.car[9].nic.phy80211p antennaOffsetZ 1.895m
attr unit m
par task_offloading.car[9].nic.phy80211p antennaOffsetYaw 0rad
attr unit rad
par task_offloading.car[9].nic.phy80211p analogueModels "<root>...</root> at /home/debbo/workspace/task_offloading/simulations/task_offloading//config.xml:34"
par task_offloading.car[9].nic.phy80211p decider "<root>...</root> at /home/debbo/workspace/task_offloading/simulations/task_offloading//config.xml:34"
par task_offloading.car[9].nic.phy80211p minPowerLevel -110dBm
attr unit dBm
par task_offloading.car[9].nic.phy80211p timeRXToTX 0s
attr unit s
par task_offloading.car[9].nic.phy80211p timeRXToSleep 0s
attr unit s
par task_offloading.car[9].nic.phy80211p timeTXToRX 0s
attr unit s
par task_offloading.car[9].nic.phy80211p timeTXToSleep 0s
attr unit s
par task_offloading.car[9].nic.phy80211p timeSleepToRX 0s
attr unit s
par task_offloading.car[9].nic.phy80211p timeSleepToTX 0s
attr unit s
par task_offloading.car[9].nic.phy80211p initialRadioState 0
par task_offloading.car[9].nic.phy80211p radioMinAtt 1
par task_offloading.car[9].nic.phy80211p radioMaxAtt 0
par task_offloading.car[9].nic.phy80211p nbRadioChannels 1
par task_offloading.car[9].nic.phy80211p initialRadioChannel 0
par task_offloading.car[9].nic.phy80211p ccaThreshold -65dBm
attr unit dBm
par task_offloading.car[9].nic.phy80211p collectCollisionStatistics false
par task_offloading.car[9].nic.phy80211p allowTxDuringRx false
scalar task_offloading.car[9].nic.phy80211p busyTime 0.018870212491951
par task_offloading.car[9].nic.mac1609_4 typename "\"org.car2x.veins.modules.mac.ieee80211p.Mac1609_4\""
par task_offloading.car[9].nic.mac1609_4 notAffectedByHostState false
par task_offloading.car[9].nic.mac1609_4 headerLength 0bit
attr unit bit
par task_offloading.car[9].nic.mac1609_4 address "\"auto\""
par task_offloading.car[9].nic.mac1609_4 useServiceChannel false
par task_offloading.car[9].nic.mac1609_4 serviceChannel 1
par task_offloading.car[9].nic.mac1609_4 bitrate 6000000bps
attr unit bps
par task_offloading.car[9].nic.mac1609_4 syncOffset 0.0003s
attr unit s
par task_offloading.car[9].nic.mac1609_4 txPower 20mW
attr unit mW
par task_offloading.car[9].nic.mac1609_4 queueSize 0
par task_offloading.car[9].nic.mac1609_4 dot11RTSThreshold 12000bit
attr unit bit
par task_offloading.car[9].nic.mac1609_4 dot11ShortRetryLimit 7
par task_offloading.car[9].nic.mac1609_4 dot11LongRetryLimit 4
par task_offloading.car[9].nic.mac1609_4 ackLength 112bit
attr unit bit
par task_offloading.car[9].nic.mac1609_4 useAcks false
par task_offloading.car[9].nic.mac1609_4 frameErrorRate 0
par task_offloading.car[9].nic.mac1609_4 ackErrorRate 0
scalar task_offloading.car[9].nic.mac1609_4 ReceivedUnicastPackets 0
scalar task_offloading.car[9].nic.mac1609_4 ReceivedBroadcasts 1
scalar task_offloading.car[9].nic.mac1609_4 SentPackets 0
scalar task_offloading.car[9].nic.mac1609_4 SentAcknowledgements 0
scalar task_offloading.car[9].nic.mac1609_4 RetriesExceeded 0
scalar task_offloading.car[9].nic.mac1609_4 SNIRLostPackets 5
scalar task_offloading.car[9].nic.mac1609_4 RXTXLostPackets 0
scalar task_offloading.car[9].nic.mac1609_4 TotalLostPackets 5
scalar task_offloading.car[9].nic.mac1609_4 DroppedPacketsInMac 0
scalar task_offloading.car[9].nic.mac1609_4 TooLittleTime 0
scalar task_offloading.car[9].nic.mac1609_4 TimesIntoBackoff 0
scalar task_offloading.car[9].nic.mac1609_4 SlotsBackoff 0
scalar task_offloading.car[9].nic.mac1609_4 NumInternalContention 0
scalar task_offloading.car[9].nic.mac1609_4 totalBusyTime 2.930544
scalar task_offloading.car[9].nic.mac1609_4 retriesExceeded:count 0
attr recordingmode count
attr source org_car2x_veins_modules_mac_sigRetriesExceeded
scalar task_offloading.car[9].nic.mac1609_4 sentAcks:count 0
attr recordingmode count
attr source org_car2x_veins_modules_mac_sigSentAck
scalar task_offloading.car[9].nic.mac1609_4 sentPackets:count 0
attr recordingmode count
attr source org_car2x_veins_modules_mac_sigSentPacket
scalar task_offloading.car[9].nic.mac1609_4 collisions:count 0
attr recordingmode count
attr source org_car2x_veins_modules_mac_sigCollision
scalar task_offloading.car[9].nic.mac1609_4 channelBusy:timeavg 0.018870212491951
attr recordingmode timeavg
attr source org_car2x_veins_modules_mac_sigChannelBusy
par task_offloading.car[9].nic typename "\"org.car2x.veins.modules.nic.Nic80211p\""
par task_offloading.car[9].nic connectionManagerName "\"connectionManager\""
par task_offloading.car[9].veinsmobility typename "\"org.car2x.veins.modules.mobility.traci.TraCIMobility\""
par task_offloading.car[9].veinsmobility notAffectedByHostState true
par task_offloading.car[9].veinsmobility x 0
par task_offloading.car[9].veinsmobility y 0
par task_offloading.car[9].veinsmobility z 0
par task_offloading.car[9].veinsmobility xOrientation 1
par task_offloading.car[9].veinsmobility yOrientation 0
par task_offloading.car[9].veinsmobility zOrientation 0
par task_offloading.car[9].veinsmobility hostPositionOffset 0m
attr unit m
par task_offloading.car[9].veinsmobility setHostSpeed false
par task_offloading.car[9].veinsmobility accidentCount 0
par task_offloading.car[9].veinsmobility accidentStart 47.7842s
attr unit s
par task_offloading.car[9].veinsmobility accidentDuration "uniform(30s, 60s)"
attr unit s
par task_offloading.car[9].veinsmobility accidentInterval "uniform(30s, 60s)"
attr unit s
scalar task_offloading.car[9].veinsmobility startTime 5.3
scalar task_offloading.car[9].veinsmobility totalTime 155.2
scalar task_offloading.car[9].veinsmobility stopTime 160.6
scalar task_offloading.car[9].veinsmobility minSpeed 0.25096793531254
scalar task_offloading.car[9].veinsmobility maxSpeed 20.955216736306
scalar task_offloading.car[9].veinsmobility totalDistance 2085.7428518119
scalar task_offloading.car[9].veinsmobility totalCO2Emission 493.39337108651
par task_offloading.car[9] typename "\"org.car2x.veins.nodes.Car\""
par task_offloading.car[9] applType "\"Worker\""
par task_offloading.car[9] nicType "\"Nic80211p\""
par task_offloading.car[9] veinsmobilityType "\"org.car2x.veins.modules.mobility.traci.TraCIMobility\""
par task_offloading.car[2].appl typename "\"task_offloading.app.Worker\""
par task_offloading.car[2].appl headerLength 80bit
attr unit bit
par task_offloading.car[2].appl sendBeacons false
par task_offloading.car[2].appl beaconLengthBits 256bit
attr unit bit
par task_offloading.car[2].appl beaconUserPriority 7
par task_offloading.car[2].appl beaconInterval 1s
attr unit s
par task_offloading.car[2].appl dataLengthBits 0bit
attr unit bit
par task_offloading.car[2].appl dataOnSch false
par task_offloading.car[2].appl dataUserPriority 7
par task_offloading.car[2].appl avoidBeaconSynchronization true
par task_offloading.car[2].appl sendWSA false
par task_offloading.car[2].appl wsaLengthBits 250bit
attr unit bit
par task_offloading.car[2].appl wsaInterval 1s
attr unit s
par task_offloading.car[2].appl randomVehicleCpuFreq "uniform(1.2GHz, 2.7GHz)"
attr unit Hz
par task_offloading.car[2].appl randomVehicleFreeLoadPercentage "uniform(0, 1)"
par task_offloading.car[2].appl commonVehicleLoad 1e+06byte
attr unit byte
par task_offloading.car[2].appl useAcks false
par task_offloading.car[2].appl stillAvailableProbability "uniform(0, 1)"
par task_offloading.car[2].appl stillAvailableThreshold 0.5
par task_offloading.car[2].appl vehicleAvailabilityMessageTime 0.0210108s
attr unit s
par task_offloading.car[2].appl ackMessageThreshold "uniform(300ms, 400ms)"
attr unit s
scalar task_offloading.car[2].appl generatedWSMs 0
scalar task_offloading.car[2].appl receivedWSMs 0
scalar task_offloading.car[2].appl generatedBSMs 0
scalar task_offloading.car[2].appl receivedBSMs 0
scalar task_offloading.car[2].appl generatedWSAs 0
scalar task_offloading.car[2].appl receivedWSAs 0
statistic task_offloading.car[2].appl availableMessageLoad:stats
field count 0
field mean -nan
field stddev -nan
field min -nan
field max -nan
field sum 0
field sqrsum 0
attr interpolationmode none
attr recordingmode stats
attr source available_message_load
statistic task_offloading.car[2].appl availableMessageSent:stats
field count 0
field mean -nan
field stddev -nan
field min -nan
field max -nan
field sum 0
field sqrsum 0
attr interpolationmode none
attr recordingmode stats
attr source available_message_sent
statistic task_offloading.car[2].appl startResponseMessages:stats
field count 0
field mean -nan
field stddev -nan
field min -nan
field max -nan
field sum 0
field sqrsum 0
attr interpolationmode none
attr recordingmode stats
attr source start_getting_response
statistic task_offloading.car[2].appl stopDataMessages:stats
field count 0
field mean -nan
field stddev -nan
field min -nan
field max -nan
field sum 0
field sqrsum 0
attr interpolationmode none
attr recordingmode stats
attr source stop_sending_data
statistic task_offloading.car[2].appl stopHelpRequests:stats
field count 0
field mean -nan
field stddev -nan
field min -nan
field max -nan
field sum 0
field sqrsum 0
attr interpolationmode none
attr recordingmode stats
attr source stop_bus_help_rq
par task_offloading.car[2].nic.phy80211p typename "\"org.car2x.veins.modules.phy.PhyLayer80211p\""
par task_offloading.car[2].nic.phy80211p recordStats false
par task_offloading.car[2].nic.phy80211p usePropagationDelay true
par task_offloading.car[2].nic.phy80211p noiseFloor -98dBm
attr unit dBm
par task_offloading.car[2].nic.phy80211p useNoiseFloor true
par task_offloading.car[2].nic.phy80211p antenna "<Antenna type=\"SampledAntenna1D\" id=\"monopole\">...</Antenna> at /home/debbo/workspace/task_offloading/simulations/task_offloading//antenna.xml:35"
par task_offloading.car[2].nic.phy80211p antennaOffsetX 0m
attr unit m
par task_offloading.car[2].nic.phy80211p antennaOffsetY 0m
attr unit m
par task_offloading.car[2].nic.phy80211p antennaOffsetZ 1.895m
attr unit m
par task_offloading.car[2].nic.phy80211p antennaOffsetYaw 0rad
attr unit rad
par task_offloading.car[2].nic.phy80211p analogueModels "<root>...</root> at /home/debbo/workspace/task_offloading/simulations/task_offloading//config.xml:34"
par task_offloading.car[2].nic.phy80211p decider "<root>...</root> at /home/debbo/workspace/task_offloading/simulations/task_offloading//config.xml:34"
par task_offloading.car[2].nic.phy80211p minPowerLevel -110dBm
attr unit dBm
par task_offloading.car[2].nic.phy80211p timeRXToTX 0s
attr unit s
par task_offloading.car[2].nic.phy80211p timeRXToSleep 0s
attr unit s
par task_offloading.car[2].nic.phy80211p timeTXToRX 0s
attr unit s
par task_offloading.car[2].nic.phy80211p timeTXToSleep 0s
attr unit s
par task_offloading.car[2].nic.phy80211p timeSleepToRX 0s
attr unit s
par task_offloading.car[2].nic.phy80211p timeSleepToTX 0s
attr unit s
par task_offloading.car[2].nic.phy80211p initialRadioState 0
par task_offloading.car[2].nic.phy80211p radioMinAtt 1
par task_offloading.car[2].nic.phy80211p radioMaxAtt 0
par task_offloading.car[2].nic.phy80211p nbRadioChannels 1
par task_offloading.car[2].nic.phy80211p initialRadioChannel 0
par task_offloading.car[2].nic.phy80211p ccaThreshold -65dBm
attr unit dBm
par task_offloading.car[2].nic.phy80211p collectCollisionStatistics false
par task_offloading.car[2].nic.phy80211p allowTxDuringRx false
scalar task_offloading.car[2].nic.phy80211p busyTime 0.007132485380117
par task_offloading.car[2].nic.mac1609_4 typename "\"org.car2x.veins.modules.mac.ieee80211p.Mac1609_4\""
par task_offloading.car[2].nic.mac1609_4 notAffectedByHostState false
par task_offloading.car[2].nic.mac1609_4 headerLength 0bit
attr unit bit
par task_offloading.car[2].nic.mac1609_4 address "\"auto\""
par task_offloading.car[2].nic.mac1609_4 useServiceChannel false
par task_offloading.car[2].nic.mac1609_4 serviceChannel 1
par task_offloading.car[2].nic.mac1609_4 bitrate 6000000bps
attr unit bps
par task_offloading.car[2].nic.mac1609_4 syncOffset 0.0003s
attr unit s
par task_offloading.car[2].nic.mac1609_4 txPower 20mW
attr unit mW
par task_offloading.car[2].nic.mac1609_4 queueSize 0
par task_offloading.car[2].nic.mac1609_4 dot11RTSThreshold 12000bit
attr unit bit
par task_offloading.car[2].nic.mac1609_4 dot11ShortRetryLimit 7
par task_offloading.car[2].nic.mac1609_4 dot11LongRetryLimit 4
par task_offloading.car[2].nic.mac1609_4 ackLength 112bit
attr unit bit
par task_offloading.car[2].nic.mac1609_4 useAcks false
par task_offloading.car[2].nic.mac1609_4 frameErrorRate 0
par task_offloading.car[2].nic.mac1609_4 ackErrorRate 0
scalar task_offloading.car[2].nic.mac1609_4 ReceivedUnicastPackets 0
scalar task_offloading.car[2].nic.mac1609_4 ReceivedBroadcasts 0
scalar task_offloading.car[2].nic.mac1609_4 SentPackets 0
scalar task_offloading.car[2].nic.mac1609_4 SentAcknowledgements 0
scalar task_offloading.car[2].nic.mac1609_4 RetriesExceeded 0
scalar task_offloading.car[2].nic.mac1609_4 SNIRLostPackets 2
scalar task_offloading.car[2].nic.mac1609_4 RXTXLostPackets 0
scalar task_offloading.car[2].nic.mac1609_4 TotalLostPackets 2
scalar task_offloading.car[2].nic.mac1609_4 DroppedPacketsInMac 0
scalar task_offloading.car[2].nic.mac1609_4 TooLittleTime 0
scalar task_offloading.car[2].nic.mac1609_4 TimesIntoBackoff 0
scalar task_offloading.car[2].nic.mac1609_4 SlotsBackoff 0
scalar task_offloading.car[2].nic.mac1609_4 NumInternalContention 0
scalar task_offloading.car[2].nic.mac1609_4 totalBusyTime 1.951448
scalar task_offloading.car[2].nic.mac1609_4 retriesExceeded:count 0
attr recordingmode count
attr source org_car2x_veins_modules_mac_sigRetriesExceeded
scalar task_offloading.car[2].nic.mac1609_4 sentAcks:count 0
attr recordingmode count
attr source org_car2x_veins_modules_mac_sigSentAck
scalar task_offloading.car[2].nic.mac1609_4 sentPackets:count 0
attr recordingmode count
attr source org_car2x_veins_modules_mac_sigSentPacket
scalar task_offloading.car[2].nic.mac1609_4 collisions:count 0
attr recordingmode count
attr source org_car2x_veins_modules_mac_sigCollision
scalar task_offloading.car[2].nic.mac1609_4 channelBusy:timeavg 0.007132485380117
attr recordingmode timeavg
attr source org_car2x_veins_modules_mac_sigChannelBusy
par task_offloading.car[2].nic typename "\"org.car2x.veins.modules.nic.Nic80211p\""
par task_offloading.car[2].nic connectionManagerName "\"connectionManager\""
par task_offloading.car[2].veinsmobility typename "\"org.car2x.veins.modules.mobility.traci.TraCIMobility\""
par task_offloading.car[2].veinsmobility notAffectedByHostState true
par task_offloading.car[2].veinsmobility x 0
par task_offloading.car[2].veinsmobility y 0
par task_offloading.car[2].veinsmobility z 0
par task_offloading.car[2].veinsmobility xOrientation 1
par task_offloading.car[2].veinsmobility yOrientation 0
par task_offloading.car[2].veinsmobility zOrientation 0
par task_offloading.car[2].veinsmobility hostPositionOffset 0m
attr unit m
par task_offloading.car[2].veinsmobility setHostSpeed false
par task_offloading.car[2].veinsmobility accidentCount 0
par task_offloading.car[2].veinsmobility accidentStart 54.7756s
attr unit s
par task_offloading.car[2].veinsmobility accidentDuration "uniform(30s, 60s)"
attr unit s
par task_offloading.car[2].veinsmobility accidentInterval "uniform(30s, 60s)"
attr unit s
scalar task_offloading.car[2].veinsmobility startTime 0.1
scalar task_offloading.car[2].veinsmobility totalTime 273.5
scalar task_offloading.car[2].veinsmobility stopTime 273.7
scalar task_offloading.car[2].veinsmobility minSpeed 0.24839281809283
scalar task_offloading.car[2].veinsmobility maxSpeed 13.131409608084
scalar task_offloading.car[2].veinsmobility totalDistance 2746.8433767752
scalar task_offloading.car[2].veinsmobility totalCO2Emission 607.1845018084
par task_offloading.car[2] typename "\"org.car2x.veins.nodes.Car\""
par task_offloading.car[2] applType "\"Worker\""
par task_offloading.car[2] nicType "\"Nic80211p\""
par task_offloading.car[2] veinsmobilityType "\"org.car2x.veins.modules.mobility.traci.TraCIMobility\""
par task_offloading.bus[1].appl typename "\"task_offloading.app.TaskGenerator\""
par task_offloading.bus[1].appl headerLength 80bit
attr unit bit
par task_offloading.bus[1].appl sendBeacons false
par task_offloading.bus[1].appl beaconLengthBits 256bit
attr unit bit
par task_offloading.bus[1].appl beaconUserPriority 7
par task_offloading.bus[1].appl beaconInterval 1s
attr unit s
par task_offloading.bus[1].appl dataLengthBits 0bit
attr unit bit
par task_offloading.bus[1].appl dataOnSch false
par task_offloading.bus[1].appl dataUserPriority 7
par task_offloading.bus[1].appl avoidBeaconSynchronization true
par task_offloading.bus[1].appl sendWSA false
par task_offloading.bus[1].appl wsaLengthBits 250bit
attr unit bit
par task_offloading.bus[1].appl wsaInterval 1s
attr unit s
par task_offloading.bus[1].appl randomTimeFirstHelpMessage "uniform(30s, 40s)"
attr unit s
par task_offloading.bus[1].appl randomTimeHelpRequest "uniform(1s, 2s)"
attr unit s
par task_offloading.bus[1].appl minimumVehicleLoadRequested 700000byte
attr unit byte
par task_offloading.bus[1].appl busVehicleLoad 4e+06byte
attr unit byte
par task_offloading.bus[1].appl computationLoad 1.5e+07byte
attr mutable ""
attr unit byte
par task_offloading.bus[1].appl useAcks false
par task_offloading.bus[1].appl busWaitingTimeForAvailability 0.184478s
attr unit s
par task_offloading.bus[1].appl dataComputationThreshold "uniform(500ms, 600ms)"
attr unit s
par task_offloading.bus[1].appl sortingAlgorithm "\"FIFO\""
scalar task_offloading.bus[1].appl generatedWSMs 45
scalar task_offloading.bus[1].appl receivedWSMs 31
scalar task_offloading.bus[1].appl generatedBSMs 0
scalar task_offloading.bus[1].appl receivedBSMs 0
scalar task_offloading.bus[1].appl generatedWSAs 0
scalar task_offloading.bus[1].appl receivedWSAs 0
statistic task_offloading.bus[1].appl stopResponseMessages:stats
field count 19
field mean 10.421052631579
field stddev 2.008752777048
field min 7
field max 12
field sum 198
field sqrsum 2136
attr interpolationmode none
attr recordingmode stats
attr source stop_getting_response
statistic task_offloading.bus[1].appl startDataMessages:stats
field count 19
field mean 10.421052631579
field stddev 2.008752777048
field min 7
field max 12
field sum 198
field sqrsum 2136
attr interpolationmode none
attr recordingmode stats
attr source start_sending_data
statistic task_offloading.bus[1].appl startHelpRequests:stats
field count 15
field mean 47.313333333333
field stddev 15.017745059318
field min 31.2
field max 69.9
field sum 709.7
field sqrsum 36735.73
attr interpolationmode none
attr recordingmode stats
attr source start_bus_help_rq
statistic task_offloading.bus[1].appl stopBalanceLoad:stats
field count 17
field mean 51.970339486971
field stddev 13.469550491704
field min 32.584477613494
field max 82.745196439766
field sum 883.49577127851
field sqrsum 48818.435815825
attr interpolationmode none
attr recordingmode stats
attr source stop_balance_loading
statistic task_offloading.bus[1].appl startBalanceLoad:stats
field count 17
field mean 51.970339486971
field stddev 13.469550491704
field min 32.584477613494
field max 82.745196439766
field sum 883.49577127851
field sqrsum 48818.435815825
attr interpolationmode none
attr recordingmode stats
attr source start_balance_loading
statistic task_offloading.bus[1].appl stopTimeTask:stats
field count 1
field mean 84.362373309993
field stddev -nan
field min 84.362373309993
field max 84.362373309993
field sum 84.362373309993
field sqrsum 7117.0100304946
attr interpolationmode none
attr recordingmode stats
attr source task_stopped
statistic task_offloading.bus[1].appl startTimeTask:stats
field count 1
field mean 31.2
field stddev -nan
field min 31.2
field max 31.2
field sum 31.2
field sqrsum 973.44
attr interpolationmode none
attr recordingmode stats
attr source task_started
par task_offloading.bus[1].nic.phy80211p typename "\"org.car2x.veins.modules.phy.PhyLayer80211p\""
par task_offloading.bus[1].nic.phy80211p recordStats false
par task_offloading.bus[1].nic.phy80211p usePropagationDelay true
par task_offloading.bus[1].nic.phy80211p noiseFloor -98dBm
attr unit dBm
par task_offloading.bus[1].nic.phy80211p useNoiseFloor true
par task_offloading.bus[1].nic.phy80211p antenna "<Antenna type=\"SampledAntenna1D\" id=\"monopole\">...</Antenna> at /home/debbo/workspace/task_offloading/simulations/task_offloading//antenna.xml:35"
par task_offloading.bus[1].nic.phy80211p antennaOffsetX 0m
attr unit m
par task_offloading.bus[1].nic.phy80211p antennaOffsetY 0m
attr unit m
par task_offloading.bus[1].nic.phy80211p antennaOffsetZ 1.895m
attr unit m
par task_offloading.bus[1].nic.phy80211p antennaOffsetYaw 0rad
attr unit rad
par task_offloading.bus[1].nic.phy80211p analogueModels "<root>...</root> at /home/debbo/workspace/task_offloading/simulations/task_offloading//config.xml:34"
par task_offloading.bus[1].nic.phy80211p decider "<root>...</root> at /home/debbo/workspace/task_offloading/simulations/task_offloading//config.xml:34"
par task_offloading.bus[1].nic.phy80211p minPowerLevel -110dBm
attr unit dBm
par task_offloading.bus[1].nic.phy80211p timeRXToTX 0s
attr unit s
par task_offloading.bus[1].nic.phy80211p timeRXToSleep 0s
attr unit s
par task_offloading.bus[1].nic.phy80211p timeTXToRX 0s
attr unit s
par task_offloading.bus[1].nic.phy80211p timeTXToSleep 0s
attr unit s
par task_offloading.bus[1].nic.phy80211p timeSleepToRX 0s
attr unit s
par task_offloading.bus[1].nic.phy80211p timeSleepToTX 0s
attr unit s
par task_offloading.bus[1].nic.phy80211p initialRadioState 0
par task_offloading.bus[1].nic.phy80211p radioMinAtt 1
par task_offloading.bus[1].nic.phy80211p radioMaxAtt 0
par task_offloading.bus[1].nic.phy80211p nbRadioChannels 1
par task_offloading.bus[1].nic.phy80211p initialRadioChannel 0
par task_offloading.bus[1].nic.phy80211p ccaThreshold -65dBm
attr unit dBm
par task_offloading.bus[1].nic.phy80211p collectCollisionStatistics false
par task_offloading.bus[1].nic.phy80211p allowTxDuringRx false
scalar task_offloading.bus[1].nic.phy80211p busyTime 0.080547279358133
par task_offloading.bus[1].nic.mac1609_4 typename "\"org.car2x.veins.modules.mac.ieee80211p.Mac1609_4\""
par task_offloading.bus[1].nic.mac1609_4 notAffectedByHostState false
par task_offloading.bus[1].nic.mac1609_4 headerLength 0bit
attr unit bit
par task_offloading.bus[1].nic.mac1609_4 address "\"auto\""
par task_offloading.bus[1].nic.mac1609_4 useServiceChannel false
par task_offloading.bus[1].nic.mac1609_4 serviceChannel 1
par task_offloading.bus[1].nic.mac1609_4 bitrate 6000000bps
attr unit bps
par task_offloading.bus[1].nic.mac1609_4 syncOffset 0.0003s
attr unit s
par task_offloading.bus[1].nic.mac1609_4 txPower 20mW
attr unit mW
par task_offloading.bus[1].nic.mac1609_4 queueSize 0
par task_offloading.bus[1].nic.mac1609_4 dot11RTSThreshold 12000bit
attr unit bit
par task_offloading.bus[1].nic.mac1609_4 dot11ShortRetryLimit 7
par task_offloading.bus[1].nic.mac1609_4 dot11LongRetryLimit 4
par task_offloading.bus[1].nic.mac1609_4 ackLength 112bit
attr unit bit
par task_offloading.bus[1].nic.mac1609_4 useAcks false
par task_offloading.bus[1].nic.mac1609_4 frameErrorRate 0
par task_offloading.bus[1].nic.mac1609_4 ackErrorRate 0
scalar task_offloading.bus[1].nic.mac1609_4 ReceivedUnicastPackets 0
scalar task_offloading.bus[1].nic.mac1609_4 ReceivedBroadcasts 31
scalar task_offloading.bus[1].nic.mac1609_4 SentPackets 45
scalar task_offloading.bus[1].nic.mac1609_4 SentAcknowledgements 0
scalar task_offloading.bus[1].nic.mac1609_4 RetriesExceeded 0
scalar task_offloading.bus[1].nic.mac1609_4 SNIRLostPackets 1
scalar task_offloading.bus[1].nic.mac1609_4 RXTXLostPackets 1
scalar task_offloading.bus[1].nic.mac1609_4 TotalLostPackets 2
scalar task_offloading.bus[1].nic.mac1609_4 DroppedPacketsInMac 0
scalar task_offloading.bus[1].nic.mac1609_4 TooLittleTime 0
scalar task_offloading.bus[1].nic.mac1609_4 TimesIntoBackoff 45
scalar task_offloading.bus[1].nic.mac1609_4 SlotsBackoff 67
scalar task_offloading.bus[1].nic.mac1609_4 NumInternalContention 0
scalar task_offloading.bus[1].nic.mac1609_4 totalBusyTime 44.172941
scalar task_offloading.bus[1].nic.mac1609_4 retriesExceeded:count 0
attr recordingmode count
attr source org_car2x_veins_modules_mac_sigRetriesExceeded
scalar task_offloading.bus[1].nic.mac1609_4 sentAcks:count 0
attr recordingmode count
attr source org_car2x_veins_modules_mac_sigSentAck
scalar task_offloading.bus[1].nic.mac1609_4 sentPackets:count 45
attr recordingmode count
attr source org_car2x_veins_modules_mac_sigSentPacket
scalar task_offloading.bus[1].nic.mac1609_4 collisions:count 0
attr recordingmode count
attr source org_car2x_veins_modules_mac_sigCollision
scalar task_offloading.bus[1].nic.mac1609_4 channelBusy:timeavg 0.16109752370532
attr recordingmode timeavg
attr source org_car2x_veins_modules_mac_sigChannelBusy
par task_offloading.bus[1].nic typename "\"org.car2x.veins.modules.nic.Nic80211p\""
par task_offloading.bus[1].nic connectionManagerName "\"connectionManager\""
par task_offloading.bus[1].veinsmobility typename "\"org.car2x.veins.modules.mobility.traci.TraCIMobility\""
par task_offloading.bus[1].veinsmobility notAffectedByHostState true
par task_offloading.bus[1].veinsmobility x 0
par task_offloading.bus[1].veinsmobility y 0
par task_offloading.bus[1].veinsmobility z 0
par task_offloading.bus[1].veinsmobility xOrientation 1
par task_offloading.bus[1].veinsmobility yOrientation 0
par task_offloading.bus[1].veinsmobility zOrientation 0
par task_offloading.bus[1].veinsmobility hostPositionOffset 0m
attr unit m
par task_offloading.bus[1].veinsmobility setHostSpeed false
par task_offloading.bus[1].veinsmobility accidentCount 0
par task_offloading.bus[1].veinsmobility accidentStart 34.4581s
attr unit s
par task_offloading.bus[1].veinsmobility accidentDuration "uniform(30s, 60s)"
attr unit s
par task_offloading.bus[1].veinsmobility accidentInterval "uniform(30s, 60s)"
attr unit s
scalar task_offloading.bus[1].veinsmobility startTime 0.1
scalar task_offloading.bus[1].veinsmobility totalTime 274.1
scalar task_offloading.bus[1].veinsmobility stopTime 274.3
scalar task_offloading.bus[1].veinsmobility minSpeed 0.11944135029288
scalar task_offloading.bus[1].veinsmobility maxSpeed 13.889996190174
scalar task_offloading.bus[1].veinsmobility totalDistance 2819.2675277549
scalar task_offloading.bus[1].veinsmobility totalCO2Emission 591.39301386578
par task_offloading.bus[1] typename "\"org.car2x.veins.nodes.Car\""
par task_offloading.bus[1] applType "\"TaskGenerator\""
par task_offloading.bus[1] nicType "\"Nic80211p\""
par task_offloading.bus[1] veinsmobilityType "\"org.car2x.veins.modules.mobility.traci.TraCIMobility\""
par task_offloading.car[7].appl typename "\"task_offloading.app.Worker\""
par task_offloading.car[7].appl headerLength 80bit
attr unit bit
par task_offloading.car[7].appl sendBeacons false
par task_offloading.car[7].appl beaconLengthBits 256bit
attr unit bit
par task_offloading.car[7].appl beaconUserPriority 7
par task_offloading.car[7].appl beaconInterval 1s
attr unit s
par task_offloading.car[7].appl dataLengthBits 0bit
attr unit bit
par task_offloading.car[7].appl dataOnSch false
par task_offloading.car[7].appl dataUserPriority 7
par task_offloading.car[7].appl avoidBeaconSynchronization true
par task_offloading.car[7].appl sendWSA false
par task_offloading.car[7].appl wsaLengthBits 250bit
attr unit bit
par task_offloading.car[7].appl wsaInterval 1s
attr unit s
par task_offloading.car[7].appl randomVehicleCpuFreq "uniform(1.2GHz, 2.7GHz)"
attr unit Hz
par task_offloading.car[7].appl randomVehicleFreeLoadPercentage "uniform(0, 1)"
par task_offloading.car[7].appl commonVehicleLoad 1e+06byte
attr unit byte
par task_offloading.car[7].appl useAcks false
par task_offloading.car[7].appl stillAvailableProbability "uniform(0, 1)"
par task_offloading.car[7].appl stillAvailableThreshold 0.5
par task_offloading.car[7].appl vehicleAvailabilityMessageTime 0.0175821s
attr unit s
par task_offloading.car[7].appl ackMessageThreshold "uniform(300ms, 400ms)"
attr unit s
scalar task_offloading.car[7].appl generatedWSMs 6
scalar task_offloading.car[7].appl receivedWSMs 70
scalar task_offloading.car[7].appl generatedBSMs 0
scalar task_offloading.car[7].appl receivedBSMs 0
scalar task_offloading.car[7].appl generatedWSAs 0
scalar task_offloading.car[7].appl receivedWSAs 0
statistic task_offloading.car[7].appl availableMessageLoad:stats
field count 15
field mean 388365.09923761
field stddev 271452.19994599
field min 68486.554548144
field max 956846.57013044
field sum 5825476.4885642
field sqrsum 3294019910564.9
attr interpolationmode none
attr recordingmode stats
attr source available_message_load
statistic task_offloading.car[7].appl availableMessageSent:stats
field count 2
field mean 63.667654898528
field stddev 8.838837885598
field min 57.417652691813
field max 69.917657105243
field sum 127.33530979706
field sqrsum 8185.265615724
attr interpolationmode none
attr recordingmode stats
attr source available_message_sent
statistic task_offloading.car[7].appl startResponseMessages:stats
field count 4
field mean 7
field stddev 0
field min 7
field max 7
field sum 28
field sqrsum 196
attr interpolationmode none
attr recordingmode stats
attr source start_getting_response
statistic task_offloading.car[7].appl stopDataMessages:stats
field count 21
field mean 10.571428571429
field stddev 1.9639610121239
field min 7
field max 12
field sum 222
field sqrsum 2424
attr interpolationmode none
attr recordingmode stats
attr source stop_sending_data
statistic task_offloading.car[7].appl stopHelpRequests:stats
field count 15
field mean 47.31340588234
field stddev 15.017743515257
field min 31.20007508695
field max 69.900074974415
field sum 709.7010882351
field sqrsum 36735.832326866
attr interpolationmode none
attr recordingmode stats
attr source stop_bus_help_rq
par task_offloading.car[7].nic.phy80211p typename "\"org.car2x.veins.modules.phy.PhyLayer80211p\""
par task_offloading.car[7].nic.phy80211p recordStats false
par task_offloading.car[7].nic.phy80211p usePropagationDelay true
par task_offloading.car[7].nic.phy80211p noiseFloor -98dBm
attr unit dBm
par task_offloading.car[7].nic.phy80211p useNoiseFloor true
par task_offloading.car[7].nic.phy80211p antenna "<Antenna type=\"SampledAntenna1D\" id=\"monopole\">...</Antenna> at /home/debbo/workspace/task_offloading/simulations/task_offloading//antenna.xml:35"
par task_offloading.car[7].nic.phy80211p antennaOffsetX 0m
attr unit m
par task_offloading.car[7].nic.phy80211p antennaOffsetY 0m
attr unit m
par task_offloading.car[7].nic.phy80211p antennaOffsetZ 1.895m
attr unit m
par task_offloading.car[7].nic.phy80211p antennaOffsetYaw 0rad
attr unit rad
par task_offloading.car[7].nic.phy80211p analogueModels "<root>...</root> at /home/debbo/workspace/task_offloading/simulations/task_offloading//config.xml:34"
par task_offloading.car[7].nic.phy80211p decider "<root>...</root> at /home/debbo/workspace/task_offloading/simulations/task_offloading//config.xml:34"
par task_offloading.car[7].nic.phy80211p minPowerLevel -110dBm
attr unit dBm
par task_offloading.car[7].nic.phy80211p timeRXToTX 0s
attr unit s
par task_offloading.car[7].nic.phy80211p timeRXToSleep 0s
attr unit s
par task_offloading.car[7].nic.phy80211p timeTXToRX 0s
attr unit s
par task_offloading.car[7].nic.phy80211p timeTXToSleep 0s
attr unit s
par task_offloading.car[7].nic.phy80211p timeSleepToRX 0s
attr unit s
par task_offloading.car[7].nic.phy80211p timeSleepToTX 0s
attr unit s
par task_offloading.car[7].nic.phy80211p initialRadioState 0
par task_offloading.car[7].nic.phy80211p radioMinAtt 1
par task_offloading.car[7].nic.phy80211p radioMaxAtt 0
par task_offloading.car[7].nic.phy80211p nbRadioChannels 1
par task_offloading.car[7].nic.phy80211p initialRadioChannel 0
par task_offloading.car[7].nic.phy80211p ccaThreshold -65dBm
attr unit dBm
par task_offloading.car[7].nic.phy80211p collectCollisionStatistics false
par task_offloading.car[7].nic.phy80211p allowTxDuringRx false
scalar task_offloading.car[7].nic.phy80211p busyTime 0.14828273127753
par task_offloading.car[7].nic.mac1609_4 typename "\"org.car2x.veins.modules.mac.ieee80211p.Mac1609_4\""
par task_offloading.car[7].nic.mac1609_4 notAffectedByHostState false
par task_offloading.car[7].nic.mac1609_4 headerLength 0bit
attr unit bit
par task_offloading.car[7].nic.mac1609_4 address "\"auto\""
par task_offloading.car[7].nic.mac1609_4 useServiceChannel false
par task_offloading.car[7].nic.mac1609_4 serviceChannel 1
par task_offloading.car[7].nic.mac1609_4 bitrate 6000000bps
attr unit bps
par task_offloading.car[7].nic.mac1609_4 syncOffset 0.0003s
attr unit s
par task_offloading.car[7].nic.mac1609_4 txPower 20mW
attr unit mW
par task_offloading.car[7].nic.mac1609_4 queueSize 0
par task_offloading.car[7].nic.mac1609_4 dot11RTSThreshold 12000bit
attr unit bit
par task_offloading.car[7].nic.mac1609_4 dot11ShortRetryLimit 7
par task_offloading.car[7].nic.mac1609_4 dot11LongRetryLimit 4
par task_offloading.car[7].nic.mac1609_4 ackLength 112bit
attr unit bit
par task_offloading.car[7].nic.mac1609_4 useAcks false
par task_offloading.car[7].nic.mac1609_4 frameErrorRate 0
par task_offloading.car[7].nic.mac1609_4 ackErrorRate 0
scalar task_offloading.car[7].nic.mac1609_4 ReceivedUnicastPackets 0
scalar task_offloading.car[7].nic.mac1609_4 ReceivedBroadcasts 70
scalar task_offloading.car[7].nic.mac1609_4 SentPackets 6
scalar task_offloading.car[7].nic.mac1609_4 SentAcknowledgements 0
scalar task_offloading.car[7].nic.mac1609_4 RetriesExceeded 0
scalar task_offloading.car[7].nic.mac1609_4 SNIRLostPackets 1
scalar task_offloading.car[7].nic.mac1609_4 RXTXLostPackets 1
scalar task_offloading.car[7].nic.mac1609_4 TotalLostPackets 2
scalar task_offloading.car[7].nic.mac1609_4 DroppedPacketsInMac 0
scalar task_offloading.car[7].nic.mac1609_4 TooLittleTime 0
scalar task_offloading.car[7].nic.mac1609_4 TimesIntoBackoff 7
scalar task_offloading.car[7].nic.mac1609_4 SlotsBackoff 10
scalar task_offloading.car[7].nic.mac1609_4 NumInternalContention 0
scalar task_offloading.car[7].nic.mac1609_4 totalBusyTime 44.172902
scalar task_offloading.car[7].nic.mac1609_4 retriesExceeded:count 0
attr recordingmode count
attr source org_car2x_veins_modules_mac_sigRetriesExceeded
scalar task_offloading.car[7].nic.mac1609_4 sentAcks:count 0
attr recordingmode count
attr source org_car2x_veins_modules_mac_sigSentAck
scalar task_offloading.car[7].nic.mac1609_4 sentPackets:count 6
attr recordingmode count
attr source org_car2x_veins_modules_mac_sigSentPacket
scalar task_offloading.car[7].nic.mac1609_4 collisions:count 0
attr recordingmode count
attr source org_car2x_veins_modules_mac_sigCollision
scalar task_offloading.car[7].nic.mac1609_4 channelBusy:timeavg 0.16216190161527
attr recordingmode timeavg
attr source org_car2x_veins_modules_mac_sigChannelBusy
par task_offloading.car[7].nic typename "\"org.car2x.veins.modules.nic.Nic80211p\""
par task_offloading.car[7].nic connectionManagerName "\"connectionManager\""
par task_offloading.car[7].veinsmobility typename "\"org.car2x.veins.modules.mobility.traci.TraCIMobility\""
par task_offloading.car[7].veinsmobility notAffectedByHostState true
par task_offloading.car[7].veinsmobility x 0
par task_offloading.car[7].veinsmobility y 0
par task_offloading.car[7].veinsmobility z 0
par task_offloading.car[7].veinsmobility xOrientation 1
par task_offloading.car[7].veinsmobility yOrientation 0
par task_offloading.car[7].veinsmobility zOrientation 0
par task_offloading.car[7].veinsmobility hostPositionOffset 0m
attr unit m
par task_offloading.car[7].veinsmobility setHostSpeed false
par task_offloading.car[7].veinsmobility accidentCount 0
par task_offloading.car[7].veinsmobility accidentStart 47.4553s
attr unit s
par task_offloading.car[7].veinsmobility accidentDuration "uniform(30s, 60s)"
attr unit s
par task_offloading.car[7].veinsmobility accidentInterval "uniform(30s, 60s)"
attr unit s
scalar task_offloading.car[7].veinsmobility startTime 4
scalar task_offloading.car[7].veinsmobility totalTime 272.3
scalar task_offloading.car[7].veinsmobility stopTime 276.4
scalar task_offloading.car[7].veinsmobility minSpeed 0.25484053724282
scalar task_offloading.car[7].veinsmobility maxSpeed 14.089622106517
scalar task_offloading.car[7].veinsmobility totalDistance 2827.0125034084
scalar task_offloading.car[7].veinsmobility totalCO2Emission 644.09898696793
par task_offloading.car[7] typename "\"org.car2x.veins.nodes.Car\""
par task_offloading.car[7] applType "\"Worker\""
par task_offloading.car[7] nicType "\"Nic80211p\""
par task_offloading.car[7] veinsmobilityType "\"org.car2x.veins.modules.mobility.traci.TraCIMobility\""
par task_offloading.car[0].appl typename "\"task_offloading.app.Worker\""
par task_offloading.car[0].appl headerLength 80bit
attr unit bit
par task_offloading.car[0].appl sendBeacons false
par task_offloading.car[0].appl beaconLengthBits 256bit
attr unit bit
par task_offloading.car[0].appl beaconUserPriority 7
par task_offloading.car[0].appl beaconInterval 1s
attr unit s
par task_offloading.car[0].appl dataLengthBits 0bit
attr unit bit
par task_offloading.car[0].appl dataOnSch false
par task_offloading.car[0].appl dataUserPriority 7
par task_offloading.car[0].appl avoidBeaconSynchronization true
par task_offloading.car[0].appl sendWSA false
par task_offloading.car[0].appl wsaLengthBits 250bit
attr unit bit
par task_offloading.car[0].appl wsaInterval 1s
attr unit s
par task_offloading.car[0].appl randomVehicleCpuFreq "uniform(1.2GHz, 2.7GHz)"
attr unit Hz
par task_offloading.car[0].appl randomVehicleFreeLoadPercentage "uniform(0, 1)"
par task_offloading.car[0].appl commonVehicleLoad 1e+06byte
attr unit byte
par task_offloading.car[0].appl useAcks false
par task_offloading.car[0].appl stillAvailableProbability "uniform(0, 1)"
par task_offloading.car[0].appl stillAvailableThreshold 0.5
par task_offloading.car[0].appl vehicleAvailabilityMessageTime 0.0543405s
attr unit s
par task_offloading.car[0].appl ackMessageThreshold "uniform(300ms, 400ms)"
attr unit s
scalar task_offloading.car[0].appl generatedWSMs 7
scalar task_offloading.car[0].appl receivedWSMs 40
scalar task_offloading.car[0].appl generatedBSMs 0
scalar task_offloading.car[0].appl receivedBSMs 0
scalar task_offloading.car[0].appl generatedWSAs 0
scalar task_offloading.car[0].appl receivedWSAs 0
statistic task_offloading.car[0].appl availableMessageLoad:stats
field count 6
field mean 568877.45453666
field stddev 295285.83353815
field min 94895.48066631
field max 919158.05311874
field sum 3413264.7272199
field sqrsum 2377697967122.2
attr interpolationmode none
attr recordingmode stats
attr source available_message_load
statistic task_offloading.car[0].appl availableMessageSent:stats
field count 2
field mean 47.004412943644
field stddev 22.132446803051
field min 31.354409724956
field max 62.654416162332
field sum 94.008825887288
field sqrsum 4908.6748738431
attr interpolationmode none
attr recordingmode stats
attr source available_message_sent
statistic task_offloading.car[0].appl startResponseMessages:stats
field count 5
field mean 0
field stddev 0
field min 0
field max 0
field sum 0
field sqrsum 0
attr interpolationmode none
attr recordingmode stats
attr source start_getting_response
statistic task_offloading.car[0].appl stopDataMessages:stats
field count 13
field mean 7.6923076923077
field stddev 6.368995412473
field min 0
field max 13
field sum 100
field sqrsum 1256
attr interpolationmode none
attr recordingmode stats
attr source stop_sending_data
statistic task_offloading.car[0].appl stopHelpRequests:stats
field count 6
field mean 40.58340572956
field stddev 11.676716838362
field min 31.100071230433
field max 62.600075668467
field sum 243.50043437736
field sqrsum 10563.805504277
attr interpolationmode none
attr recordingmode stats
attr source stop_bus_help_rq
par task_offloading.car[0].nic.phy80211p typename "\"org.car2x.veins.modules.phy.PhyLayer80211p\""
par task_offloading.car[0].nic.phy80211p recordStats false
par task_offloading.car[0].nic.phy80211p usePropagationDelay true
par task_offloading.car[0].nic.phy80211p noiseFloor -98dBm
attr unit dBm
par task_offloading.car[0].nic.phy80211p useNoiseFloor true
par task_offloading.car[0].nic.phy80211p antenna "<Antenna type=\"SampledAntenna1D\" id=\"monopole\">...</Antenna> at /home/debbo/workspace/task_offloading/simulations/task_offloading//antenna.xml:35"
par task_offloading.car[0].nic.phy80211p antennaOffsetX 0m
attr unit m
par task_offloading.car[0].nic.phy80211p antennaOffsetY 0m
attr unit m
par task_offloading.car[0].nic.phy80211p antennaOffsetZ 1.895m
attr unit m
par task_offloading.car[0].nic.phy80211p antennaOffsetYaw 0rad
attr unit rad
par task_offloading.car[0].nic.phy80211p analogueModels "<root>...</root> at /home/debbo/workspace/task_offloading/simulations/task_offloading//config.xml:34"
par task_offloading.car[0].nic.phy80211p decider "<root>...</root> at /home/debbo/workspace/task_offloading/simulations/task_offloading//config.xml:34"
par task_offloading.car[0].nic.phy80211p minPowerLevel -110dBm
attr unit dBm
par task_offloading.car[0].nic.phy80211p timeRXToTX 0s
attr unit s
par task_offloading.car[0].nic.phy80211p timeRXToSleep 0s
attr unit s
par task_offloading.car[0].nic.phy80211p timeTXToRX 0s
attr unit s
par task_offloading.car[0].nic.phy80211p timeTXToSleep 0s
attr unit s
par task_offloading.car[0].nic.phy80211p timeSleepToRX 0s
attr unit s
par task_offloading.car[0].nic.phy80211p timeSleepToTX 0s
attr unit s
par task_offloading.car[0].nic.phy80211p initialRadioState 0
par task_offloading.car[0].nic.phy80211p radioMinAtt 1
par task_offloading.car[0].nic.phy80211p radioMaxAtt 0
par task_offloading.car[0].nic.phy80211p nbRadioChannels 1
par task_offloading.car[0].nic.phy80211p initialRadioChannel 0
par task_offloading.car[0].nic.phy80211p ccaThreshold -65dBm
attr unit dBm
par task_offloading.car[0].nic.phy80211p collectCollisionStatistics false
par task_offloading.car[0].nic.phy80211p allowTxDuringRx false
scalar task_offloading.car[0].nic.phy80211p busyTime 0.15062723163842
par task_offloading.car[0].nic.mac1609_4 typename "\"org.car2x.veins.modules.mac.ieee80211p.Mac1609_4\""
par task_offloading.car[0].nic.mac1609_4 notAffectedByHostState false
par task_offloading.car[0].nic.mac1609_4 headerLength 0bit
attr unit bit
par task_offloading.car[0].nic.mac1609_4 address "\"auto\""
par task_offloading.car[0].nic.mac1609_4 useServiceChannel false
par task_offloading.car[0].nic.mac1609_4 serviceChannel 1
par task_offloading.car[0].nic.mac1609_4 bitrate 6000000bps
attr unit bps
par task_offloading.car[0].nic.mac1609_4 syncOffset 0.0003s
attr unit s
par task_offloading.car[0].nic.mac1609_4 txPower 20mW
attr unit mW
par task_offloading.car[0].nic.mac1609_4 queueSize 0
par task_offloading.car[0].nic.mac1609_4 dot11RTSThreshold 12000bit
attr unit bit
par task_offloading.car[0].nic.mac1609_4 dot11ShortRetryLimit 7
par task_offloading.car[0].nic.mac1609_4 dot11LongRetryLimit 4
par task_offloading.car[0].nic.mac1609_4 ackLength 112bit
attr unit bit
par task_offloading.car[0].nic.mac1609_4 useAcks false
par task_offloading.car[0].nic.mac1609_4 frameErrorRate 0
par task_offloading.car[0].nic.mac1609_4 ackErrorRate 0
scalar task_offloading.car[0].nic.mac1609_4 ReceivedUnicastPackets 0
scalar task_offloading.car[0].nic.mac1609_4 ReceivedBroadcasts 40
scalar task_offloading.car[0].nic.mac1609_4 SentPackets 7
scalar task_offloading.car[0].nic.mac1609_4 SentAcknowledgements 0
scalar task_offloading.car[0].nic.mac1609_4 RetriesExceeded 0
scalar task_offloading.car[0].nic.mac1609_4 SNIRLostPackets 20
scalar task_offloading.car[0].nic.mac1609_4 RXTXLostPackets 0
scalar task_offloading.car[0].nic.mac1609_4 TotalLostPackets 20
scalar task_offloading.car[0].nic.mac1609_4 DroppedPacketsInMac 0
scalar task_offloading.car[0].nic.mac1609_4 TooLittleTime 0
scalar task_offloading.car[0].nic.mac1609_4 TimesIntoBackoff 7
scalar task_offloading.car[0].nic.mac1609_4 SlotsBackoff 13
scalar task_offloading.car[0].nic.mac1609_4 NumInternalContention 0
scalar task_offloading.car[0].nic.mac1609_4 totalBusyTime 42.194607
scalar task_offloading.car[0].nic.mac1609_4 retriesExceeded:count 0
attr recordingmode count
attr source org_car2x_veins_modules_mac_sigRetriesExceeded
scalar task_offloading.car[0].nic.mac1609_4 sentAcks:count 0
attr recordingmode count
attr source org_car2x_veins_modules_mac_sigSentAck
scalar task_offloading.car[0].nic.mac1609_4 sentPackets:count 7
attr recordingmode count
attr source org_car2x_veins_modules_mac_sigSentPacket
scalar task_offloading.car[0].nic.mac1609_4 collisions:count 0
attr recordingmode count
attr source org_car2x_veins_modules_mac_sigCollision
scalar task_offloading.car[0].nic.mac1609_4 channelBusy:timeavg 0.14899225635593
attr recordingmode timeavg
attr source org_car2x_veins_modules_mac_sigChannelBusy
par task_offloading.car[0].nic typename "\"org.car2x.veins.modules.nic.Nic80211p\""
par task_offloading.car[0].nic connectionManagerName "\"connectionManager\""
par task_offloading.car[0].veinsmobility typename "\"org.car2x.veins.modules.mobility.traci.TraCIMobility\""
par task_offloading.car[0].veinsmobility notAffectedByHostState true
par task_offloading.car[0].veinsmobility x 0
par task_offloading.car[0].veinsmobility y 0
par task_offloading.car[0].veinsmobility z 0
par task_offloading.car[0].veinsmobility xOrientation 1
par task_offloading.car[0].veinsmobility yOrientation 0
par task_offloading.car[0].veinsmobility zOrientation 0
par task_offloading.car[0].veinsmobility hostPositionOffset 0m
attr unit m
par task_offloading.car[0].veinsmobility setHostSpeed false
par task_offloading.car[0].veinsmobility accidentCount 0
par task_offloading.car[0].veinsmobility accidentStart 50.1347s
attr unit s
par task_offloading.car[0].veinsmobility accidentDuration "uniform(30s, 60s)"
attr unit s
par task_offloading.car[0].veinsmobility accidentInterval "uniform(30s, 60s)"
attr unit s
scalar task_offloading.car[0].veinsmobility startTime 0.1
scalar task_offloading.car[0].veinsmobility totalTime 283.1
scalar task_offloading.car[0].veinsmobility stopTime 283.3
scalar task_offloading.car[0].veinsmobility minSpeed 0.25433206626587
scalar task_offloading.car[0].veinsmobility maxSpeed 27.699956833255
scalar task_offloading.car[0].veinsmobility totalDistance 4420.5272801046
scalar task_offloading.car[0].veinsmobility totalCO2Emission 1005.6461316084
par task_offloading.car[0] typename "\"org.car2x.veins.nodes.Car\""
par task_offloading.car[0] applType "\"Worker\""
par task_offloading.car[0] nicType "\"Nic80211p\""
par task_offloading.car[0] veinsmobilityType "\"org.car2x.veins.modules.mobility.traci.TraCIMobility\""
par task_offloading.car[10].appl typename "\"task_offloading.app.Worker\""
par task_offloading.car[10].appl headerLength 80bit
attr unit bit
par task_offloading.car[10].appl sendBeacons false
par task_offloading.car[10].appl beaconLengthBits 256bit
attr unit bit
par task_offloading.car[10].appl beaconUserPriority 7
par task_offloading.car[10].appl beaconInterval 1s
attr unit s
par task_offloading.car[10].appl dataLengthBits 0bit
attr unit bit
par task_offloading.car[10].appl dataOnSch false
par task_offloading.car[10].appl dataUserPriority 7
par task_offloading.car[10].appl avoidBeaconSynchronization true
par task_offloading.car[10].appl sendWSA false
par task_offloading.car[10].appl wsaLengthBits 250bit
attr unit bit
par task_offloading.car[10].appl wsaInterval 1s
attr unit s
par task_offloading.car[10].appl randomVehicleCpuFreq "uniform(1.2GHz, 2.7GHz)"
attr unit Hz
par task_offloading.car[10].appl randomVehicleFreeLoadPercentage "uniform(0, 1)"
par task_offloading.car[10].appl commonVehicleLoad 1e+06byte
attr unit byte
par task_offloading.car[10].appl useAcks false
par task_offloading.car[10].appl stillAvailableProbability "uniform(0, 1)"
par task_offloading.car[10].appl stillAvailableThreshold 0.5
par task_offloading.car[10].appl vehicleAvailabilityMessageTime 0.0254014s
attr unit s
par task_offloading.car[10].appl ackMessageThreshold "uniform(300ms, 400ms)"
attr unit s
scalar task_offloading.car[10].appl generatedWSMs 9
scalar task_offloading.car[10].appl receivedWSMs 67
scalar task_offloading.car[10].appl generatedBSMs 0
scalar task_offloading.car[10].appl receivedBSMs 0
scalar task_offloading.car[10].appl generatedWSAs 0
scalar task_offloading.car[10].appl receivedWSAs 0
statistic task_offloading.car[10].appl availableMessageLoad:stats
field count 15
field mean 525419.57086263
field stddev 209766.99290451
field min 8714.6167643368
field max 875420.30843906
field sum 7881293.5629394
field sqrsum 4757016560052.8
attr interpolationmode none
attr recordingmode stats
attr source available_message_load
statistic task_offloading.car[10].appl availableMessageSent:stats
field count 4
field mean 47.650474330351
field stddev 14.571514071103
field min 32.425478610288
field max 65.725467851252
field sum 190.6018973214
field sqrsum 9719.2578826028
attr interpolationmode none
attr recordingmode stats
attr source available_message_sent
statistic task_offloading.car[10].appl startResponseMessages:stats
field count 5
field mean 10
field stddev 0
field min 10
field max 10
field sum 50
field sqrsum 500
attr interpolationmode none
attr recordingmode stats
attr source start_getting_response
statistic task_offloading.car[10].appl stopDataMessages:stats
field count 21
field mean 10.571428571429
field stddev 1.9639610121239
field min 7
field max 12
field sum 222
field sqrsum 2424
attr interpolationmode none
attr recordingmode stats
attr source stop_sending_data
statistic task_offloading.car[10].appl stopHelpRequests:stats
field count 15
field mean 47.313405988427
field stddev 15.017743542619
field min 31.200075135081
field max 69.900075173599
field sum 709.70108982641
field sqrsum 36735.832488952
attr interpolationmode none
attr recordingmode stats
attr source stop_bus_help_rq
par task_offloading.car[10].nic.phy80211p typename "\"org.car2x.veins.modules.phy.PhyLayer80211p\""
par task_offloading.car[10].nic.phy80211p recordStats false
par task_offloading.car[10].nic.phy80211p usePropagationDelay true
par task_offloading.car[10].nic.phy80211p noiseFloor -98dBm
attr unit dBm
par task_offloading.car[10].nic.phy80211p useNoiseFloor true
par task_offloading.car[10].nic.phy80211p antenna "<Antenna type=\"SampledAntenna1D\" id=\"monopole\">...</Antenna> at /home/debbo/workspace/task_offloading/simulations/task_offloading//antenna.xml:35"
par task_offloading.car[10].nic.phy80211p antennaOffsetX 0m
attr unit m
par task_offloading.car[10].nic.phy80211p antennaOffsetY 0m
attr unit m
par task_offloading.car[10].nic.phy80211p antennaOffsetZ 1.895m
attr unit m
par task_offloading.car[10].nic.phy80211p antennaOffsetYaw 0rad
attr unit rad
par task_offloading.car[10].nic.phy80211p analogueModels "<root>...</root> at /home/debbo/workspace/task_offloading/simulations/task_offloading//config.xml:34"
par task_offloading.car[10].nic.phy80211p decider "<root>...</root> at /home/debbo/workspace/task_offloading/simulations/task_offloading//config.xml:34"
par task_offloading.car[10].nic.phy80211p minPowerLevel -110dBm
attr unit dBm
par task_offloading.car[10].nic.phy80211p timeRXToTX 0s
attr unit s
par task_offloading.car[10].nic.phy80211p timeRXToSleep 0s
attr unit s
par task_offloading.car[10].nic.phy80211p timeTXToRX 0s
attr unit s
par task_offloading.car[10].nic.phy80211p timeTXToSleep 0s
attr unit s
par task_offloading.car[10].nic.phy80211p timeSleepToRX 0s
attr unit s
par task_offloading.car[10].nic.phy80211p timeSleepToTX 0s
attr unit s
par task_offloading.car[10].nic.phy80211p initialRadioState 0
par task_offloading.car[10].nic.phy80211p radioMinAtt 1
par task_offloading.car[10].nic.phy80211p radioMaxAtt 0
par task_offloading.car[10].nic.phy80211p nbRadioChannels 1
par task_offloading.car[10].nic.phy80211p initialRadioChannel 0
par task_offloading.car[10].nic.phy80211p ccaThreshold -65dBm
attr unit dBm
par task_offloading.car[10].nic.phy80211p collectCollisionStatistics false
par task_offloading.car[10].nic.phy80211p allowTxDuringRx false
scalar task_offloading.car[10].nic.phy80211p busyTime 0.13595488435374
par task_offloading.car[10].nic.mac1609_4 typename "\"org.car2x.veins.modules.mac.ieee80211p.Mac1609_4\""
par task_offloading.car[10].nic.mac1609_4 notAffectedByHostState false
par task_offloading.car[10].nic.mac1609_4 headerLength 0bit
attr unit bit
par task_offloading.car[10].nic.mac1609_4 address "\"auto\""
par task_offloading.car[10].nic.mac1609_4 useServiceChannel false
par task_offloading.car[10].nic.mac1609_4 serviceChannel 1
par task_offloading.car[10].nic.mac1609_4 bitrate 6000000bps
attr unit bps
par task_offloading.car[10].nic.mac1609_4 syncOffset 0.0003s
attr unit s
par task_offloading.car[10].nic.mac1609_4 txPower 20mW
attr unit mW
par task_offloading.car[10].nic.mac1609_4 queueSize 0
par task_offloading.car[10].nic.mac1609_4 dot11RTSThreshold 12000bit
attr unit bit
par task_offloading.car[10].nic.mac1609_4 dot11ShortRetryLimit 7
[...]
attr interpolationmode none
attr recordingmode stats
attr source stop_bus_help_rq
par task_offloading.car[4].nic.phy80211p typename "\"org.car2x.veins.modules.phy.PhyLayer80211p\""
par task_offloading.car[4].nic.phy80211p recordStats false
par task_offloading.car[4].nic.phy80211p usePropagationDelay true
par task_offloading.car[4].nic.phy80211p noiseFloor -98dBm
attr unit dBm
par task_offloading.car[4].nic.phy80211p useNoiseFloor true
par task_offloading.car[4].nic.phy80211p antenna "<Antenna type=\"SampledAntenna1D\" id=\"monopole\">...</Antenna> at /home/debbo/workspace/task_offloading/simulations/task_offloading//antenna.xml:35"
par task_offloading.car[4].nic.phy80211p antennaOffsetX 0m
attr unit m
par task_offloading.car[4].nic.phy80211p antennaOffsetY 0m
attr unit m
par task_offloading.car[4].nic.phy80211p antennaOffsetZ 1.895m
attr unit m
par task_offloading.car[4].nic.phy80211p antennaOffsetYaw 0rad
attr unit rad
par task_offloading.car[4].nic.phy80211p analogueModels "<root>...</root> at /home/debbo/workspace/task_offloading/simulations/task_offloading//config.xml:34"
par task_offloading.car[4].nic.phy80211p decider "<root>...</root> at /home/debbo/workspace/task_offloading/simulations/task_offloading//config.xml:34"
par task_offloading.car[4].nic.phy80211p minPowerLevel -110dBm
attr unit dBm
par task_offloading.car[4].nic.phy80211p timeRXToTX 0s
attr unit s
par task_offloading.car[4].nic.phy80211p timeRXToSleep 0s
attr unit s
par task_offloading.car[4].nic.phy80211p timeTXToRX 0s
attr unit s
par task_offloading.car[4].nic.phy80211p timeTXToSleep 0s
attr unit s
par task_offloading.car[4].nic.phy80211p timeSleepToRX 0s
attr unit s
par task_offloading.car[4].nic.phy80211p timeSleepToTX 0s
attr unit s
par task_offloading.car[4].nic.phy80211p initialRadioState 0
par task_offloading.car[4].nic.phy80211p radioMinAtt 1
par task_offloading.car[4].nic.phy80211p radioMaxAtt 0
par task_offloading.car[4].nic.phy80211p nbRadioChannels 1
par task_offloading.car[4].nic.phy80211p initialRadioChannel 0
par task_offloading.car[4].nic.phy80211p ccaThreshold -65dBm
attr unit dBm
par task_offloading.car[4].nic.phy80211p collectCollisionStatistics false
par task_offloading.car[4].nic.phy80211p allowTxDuringRx false
scalar task_offloading.car[4].nic.phy80211p busyTime 0
par task_offloading.car[4].nic.mac1609_4 typename "\"org.car2x.veins.modules.mac.ieee80211p.Mac1609_4\""
par task_offloading.car[4].nic.mac1609_4 notAffectedByHostState false
par task_offloading.car[4].nic.mac1609_4 headerLength 0bit
attr unit bit
par task_offloading.car[4].nic.mac1609_4 address "\"auto\""
par task_offloading.car[4].nic.mac1609_4 useServiceChannel false
par task_offloading.car[4].nic.mac1609_4 serviceChannel 1
par task_offloading.car[4].nic.mac1609_4 bitrate 6000000bps
attr unit bps
par task_offloading.car[4].nic.mac1609_4 syncOffset 0.0003s
attr unit s
par task_offloading.car[4].nic.mac1609_4 txPower 20mW
attr unit mW
par task_offloading.car[4].nic.mac1609_4 queueSize 0
par task_offloading.car[4].nic.mac1609_4 dot11RTSThreshold 12000bit
attr unit bit
par task_offloading.car[4].nic.mac1609_4 dot11ShortRetryLimit 7
par task_offloading.car[4].nic.mac1609_4 dot11LongRetryLimit 4
par task_offloading.car[4].nic.mac1609_4 ackLength 112bit
attr unit bit
par task_offloading.car[4].nic.mac1609_4 useAcks false
par task_offloading.car[4].nic.mac1609_4 frameErrorRate 0
par task_offloading.car[4].nic.mac1609_4 ackErrorRate 0
scalar task_offloading.car[4].nic.mac1609_4 ReceivedUnicastPackets 0
scalar task_offloading.car[4].nic.mac1609_4 ReceivedBroadcasts 0
scalar task_offloading.car[4].nic.mac1609_4 SentPackets 0
scalar task_offloading.car[4].nic.mac1609_4 SentAcknowledgements 0
scalar task_offloading.car[4].nic.mac1609_4 RetriesExceeded 0
scalar task_offloading.car[4].nic.mac1609_4 SNIRLostPackets 0
scalar task_offloading.car[4].nic.mac1609_4 RXTXLostPackets 0
scalar task_offloading.car[4].nic.mac1609_4 TotalLostPackets 0
scalar task_offloading.car[4].nic.mac1609_4 DroppedPacketsInMac 0
scalar task_offloading.car[4].nic.mac1609_4 TooLittleTime 0
scalar task_offloading.car[4].nic.mac1609_4 TimesIntoBackoff 0
scalar task_offloading.car[4].nic.mac1609_4 SlotsBackoff 0
scalar task_offloading.car[4].nic.mac1609_4 NumInternalContention 0
scalar task_offloading.car[4].nic.mac1609_4 totalBusyTime 0
scalar task_offloading.car[4].nic.mac1609_4 retriesExceeded:count 0
attr recordingmode count
attr source org_car2x_veins_modules_mac_sigRetriesExceeded
scalar task_offloading.car[4].nic.mac1609_4 sentAcks:count 0
attr recordingmode count
attr source org_car2x_veins_modules_mac_sigSentAck
scalar task_offloading.car[4].nic.mac1609_4 sentPackets:count 0
attr recordingmode count
attr source org_car2x_veins_modules_mac_sigSentPacket
scalar task_offloading.car[4].nic.mac1609_4 collisions:count 0
attr recordingmode count
attr source org_car2x_veins_modules_mac_sigCollision
scalar task_offloading.car[4].nic.mac1609_4 channelBusy:timeavg 0
attr recordingmode timeavg
attr source org_car2x_veins_modules_mac_sigChannelBusy
par task_offloading.car[4].nic typename "\"org.car2x.veins.modules.nic.Nic80211p\""
par task_offloading.car[4].nic connectionManagerName "\"connectionManager\""
par task_offloading.car[4].veinsmobility typename "\"org.car2x.veins.modules.mobility.traci.TraCIMobility\""
par task_offloading.car[4].veinsmobility notAffectedByHostState true
par task_offloading.car[4].veinsmobility x 0
par task_offloading.car[4].veinsmobility y 0
par task_offloading.car[4].veinsmobility z 0
par task_offloading.car[4].veinsmobility xOrientation 1
par task_offloading.car[4].veinsmobility yOrientation 0
par task_offloading.car[4].veinsmobility zOrientation 0
par task_offloading.car[4].veinsmobility hostPositionOffset 0m
attr unit m
par task_offloading.car[4].veinsmobility setHostSpeed false
par task_offloading.car[4].veinsmobility accidentCount 0
par task_offloading.car[4].veinsmobility accidentStart 35.3587s
attr unit s
par task_offloading.car[4].veinsmobility accidentDuration "uniform(30s, 60s)"
attr unit s
par task_offloading.car[4].veinsmobility accidentInterval "uniform(30s, 60s)"
attr unit s
scalar task_offloading.car[4].veinsmobility startTime 2.7
scalar task_offloading.car[4].veinsmobility totalTime 334.5
scalar task_offloading.car[4].veinsmobility stopTime 337.3
scalar task_offloading.car[4].veinsmobility minSpeed 0.25797700371896
scalar task_offloading.car[4].veinsmobility maxSpeed 10.617949675174
scalar task_offloading.car[4].veinsmobility totalDistance 2748.0133493592
scalar task_offloading.car[4].veinsmobility totalCO2Emission 621.88585213247
par task_offloading.car[4] typename "\"org.car2x.veins.nodes.Car\""
par task_offloading.car[4] applType "\"Worker\""
par task_offloading.car[4] nicType "\"Nic80211p\""
par task_offloading.car[4] veinsmobilityType "\"org.car2x.veins.modules.mobility.traci.TraCIMobility\""
par task_offloading.car[8].appl typename "\"task_offloading.app.Worker\""
par task_offloading.car[8].appl headerLength 80bit
attr unit bit
par task_offloading.car[8].appl sendBeacons false
par task_offloading.car[8].appl beaconLengthBits 256bit
attr unit bit
par task_offloading.car[8].appl beaconUserPriority 7
par task_offloading.car[8].appl beaconInterval 1s
attr unit s
par task_offloading.car[8].appl dataLengthBits 0bit
attr unit bit
par task_offloading.car[8].appl dataOnSch false
par task_offloading.car[8].appl dataUserPriority 7
par task_offloading.car[8].appl avoidBeaconSynchronization true
par task_offloading.car[8].appl sendWSA false
par task_offloading.car[8].appl wsaLengthBits 250bit
attr unit bit
par task_offloading.car[8].appl wsaInterval 1s
attr unit s
par task_offloading.car[8].appl randomVehicleCpuFreq "uniform(1.2GHz, 2.7GHz)"
attr unit Hz
par task_offloading.car[8].appl randomVehicleFreeLoadPercentage "uniform(0, 1)"
par task_offloading.car[8].appl commonVehicleLoad 1e+06byte
attr unit byte
par task_offloading.car[8].appl useAcks false
par task_offloading.car[8].appl stillAvailableProbability "uniform(0, 1)"
par task_offloading.car[8].appl stillAvailableThreshold 0.5
par task_offloading.car[8].appl vehicleAvailabilityMessageTime 0.0640278s
attr unit s
par task_offloading.car[8].appl ackMessageThreshold "uniform(300ms, 400ms)"
attr unit s
scalar task_offloading.car[8].appl generatedWSMs 0
scalar task_offloading.car[8].appl receivedWSMs 0
scalar task_offloading.car[8].appl generatedBSMs 0
scalar task_offloading.car[8].appl receivedBSMs 0
scalar task_offloading.car[8].appl generatedWSAs 0
scalar task_offloading.car[8].appl receivedWSAs 0
statistic task_offloading.car[8].appl availableMessageLoad:stats
field count 0
field mean -nan
field stddev -nan
field min -nan
field max -nan
field sum 0
field sqrsum 0
attr interpolationmode none
attr recordingmode stats
attr source available_message_load
statistic task_offloading.car[8].appl availableMessageSent:stats
field count 0
field mean -nan
field stddev -nan
field min -nan
field max -nan
field sum 0
field sqrsum 0
attr interpolationmode none
attr recordingmode stats
attr source available_message_sent
statistic task_offloading.car[8].appl startResponseMessages:stats
field count 0
field mean -nan
field stddev -nan
field min -nan
field max -nan
field sum 0
field sqrsum 0
attr interpolationmode none
attr recordingmode stats
attr source start_getting_response
statistic task_offloading.car[8].appl stopDataMessages:stats
field count 0
field mean -nan
field stddev -nan
field min -nan
field max -nan
field sum 0
field sqrsum 0
attr interpolationmode none
attr recordingmode stats
attr source stop_sending_data
statistic task_offloading.car[8].appl stopHelpRequests:stats
field count 0
field mean -nan
field stddev -nan
field min -nan
field max -nan
field sum 0
field sqrsum 0
attr interpolationmode none
attr recordingmode stats
attr source stop_bus_help_rq
par task_offloading.car[8].nic.phy80211p typename "\"org.car2x.veins.modules.phy.PhyLayer80211p\""
par task_offloading.car[8].nic.phy80211p recordStats false
par task_offloading.car[8].nic.phy80211p usePropagationDelay true
par task_offloading.car[8].nic.phy80211p noiseFloor -98dBm
attr unit dBm
par task_offloading.car[8].nic.phy80211p useNoiseFloor true
par task_offloading.car[8].nic.phy80211p antenna "<Antenna type=\"SampledAntenna1D\" id=\"monopole\">...</Antenna> at /home/debbo/workspace/task_offloading/simulations/task_offloading//antenna.xml:35"
par task_offloading.car[8].nic.phy80211p antennaOffsetX 0m
attr unit m
par task_offloading.car[8].nic.phy80211p antennaOffsetY 0m
attr unit m
par task_offloading.car[8].nic.phy80211p antennaOffsetZ 1.895m
attr unit m
par task_offloading.car[8].nic.phy80211p antennaOffsetYaw 0rad
attr unit rad
par task_offloading.car[8].nic.phy80211p analogueModels "<root>...</root> at /home/debbo/workspace/task_offloading/simulations/task_offloading//config.xml:34"
par task_offloading.car[8].nic.phy80211p decider "<root>...</root> at /home/debbo/workspace/task_offloading/simulations/task_offloading//config.xml:34"
par task_offloading.car[8].nic.phy80211p minPowerLevel -110dBm
attr unit dBm
par task_offloading.car[8].nic.phy80211p timeRXToTX 0s
attr unit s
par task_offloading.car[8].nic.phy80211p timeRXToSleep 0s
attr unit s
par task_offloading.car[8].nic.phy80211p timeTXToRX 0s
attr unit s
par task_offloading.car[8].nic.phy80211p timeTXToSleep 0s
attr unit s
par task_offloading.car[8].nic.phy80211p timeSleepToRX 0s
attr unit s
par task_offloading.car[8].nic.phy80211p timeSleepToTX 0s
attr unit s
par task_offloading.car[8].nic.phy80211p initialRadioState 0
par task_offloading.car[8].nic.phy80211p radioMinAtt 1
par task_offloading.car[8].nic.phy80211p radioMaxAtt 0
par task_offloading.car[8].nic.phy80211p nbRadioChannels 1
par task_offloading.car[8].nic.phy80211p initialRadioChannel 0
par task_offloading.car[8].nic.phy80211p ccaThreshold -65dBm
attr unit dBm
par task_offloading.car[8].nic.phy80211p collectCollisionStatistics false
par task_offloading.car[8].nic.phy80211p allowTxDuringRx false
scalar task_offloading.car[8].nic.phy80211p busyTime 0
par task_offloading.car[8].nic.mac1609_4 typename "\"org.car2x.veins.modules.mac.ieee80211p.Mac1609_4\""
par task_offloading.car[8].nic.mac1609_4 notAffectedByHostState false
par task_offloading.car[8].nic.mac1609_4 headerLength 0bit
attr unit bit
par task_offloading.car[8].nic.mac1609_4 address "\"auto\""
par task_offloading.car[8].nic.mac1609_4 useServiceChannel false
par task_offloading.car[8].nic.mac1609_4 serviceChannel 1
par task_offloading.car[8].nic.mac1609_4 bitrate 6000000bps
attr unit bps
par task_offloading.car[8].nic.mac1609_4 syncOffset 0.0003s
attr unit s
par task_offloading.car[8].nic.mac1609_4 txPower 20mW
attr unit mW
par task_offloading.car[8].nic.mac1609_4 queueSize 0
par task_offloading.car[8].nic.mac1609_4 dot11RTSThreshold 12000bit
attr unit bit
par task_offloading.car[8].nic.mac1609_4 dot11ShortRetryLimit 7
par task_offloading.car[8].nic.mac1609_4 dot11LongRetryLimit 4
par task_offloading.car[8].nic.mac1609_4 ackLength 112bit
attr unit bit
par task_offloading.car[8].nic.mac1609_4 useAcks false
par task_offloading.car[8].nic.mac1609_4 frameErrorRate 0
par task_offloading.car[8].nic.mac1609_4 ackErrorRate 0
scalar task_offloading.car[8].nic.mac1609_4 ReceivedUnicastPackets 0
scalar task_offloading.car[8].nic.mac1609_4 ReceivedBroadcasts 0
scalar task_offloading.car[8].nic.mac1609_4 SentPackets 0
scalar task_offloading.car[8].nic.mac1609_4 SentAcknowledgements 0
scalar task_offloading.car[8].nic.mac1609_4 RetriesExceeded 0
scalar task_offloading.car[8].nic.mac1609_4 SNIRLostPackets 0
scalar task_offloading.car[8].nic.mac1609_4 RXTXLostPackets 0
scalar task_offloading.car[8].nic.mac1609_4 TotalLostPackets 0
scalar task_offloading.car[8].nic.mac1609_4 DroppedPacketsInMac 0
scalar task_offloading.car[8].nic.mac1609_4 TooLittleTime 0
scalar task_offloading.car[8].nic.mac1609_4 TimesIntoBackoff 0
scalar task_offloading.car[8].nic.mac1609_4 SlotsBackoff 0
scalar task_offloading.car[8].nic.mac1609_4 NumInternalContention 0
scalar task_offloading.car[8].nic.mac1609_4 totalBusyTime 0
scalar task_offloading.car[8].nic.mac1609_4 retriesExceeded:count 0
attr recordingmode count
attr source org_car2x_veins_modules_mac_sigRetriesExceeded
scalar task_offloading.car[8].nic.mac1609_4 sentAcks:count 0
attr recordingmode count
attr source org_car2x_veins_modules_mac_sigSentAck
scalar task_offloading.car[8].nic.mac1609_4 sentPackets:count 0
attr recordingmode count
attr source org_car2x_veins_modules_mac_sigSentPacket
scalar task_offloading.car[8].nic.mac1609_4 collisions:count 0
attr recordingmode count
attr source org_car2x_veins_modules_mac_sigCollision
scalar task_offloading.car[8].nic.mac1609_4 channelBusy:timeavg 0
attr recordingmode timeavg
attr source org_car2x_veins_modules_mac_sigChannelBusy
par task_offloading.car[8].nic typename "\"org.car2x.veins.modules.nic.Nic80211p\""
par task_offloading.car[8].nic connectionManagerName "\"connectionManager\""
par task_offloading.car[8].veinsmobility typename "\"org.car2x.veins.modules.mobility.traci.TraCIMobility\""
par task_offloading.car[8].veinsmobility notAffectedByHostState true
par task_offloading.car[8].veinsmobility x 0
par task_offloading.car[8].veinsmobility y 0
par task_offloading.car[8].veinsmobility z 0
par task_offloading.car[8].veinsmobility xOrientation 1
par task_offloading.car[8].veinsmobility yOrientation 0
par task_offloading.car[8].veinsmobility zOrientation 0
par task_offloading.car[8].veinsmobility hostPositionOffset 0m
attr unit m
par task_offloading.car[8].veinsmobility setHostSpeed false
par task_offloading.car[8].veinsmobility accidentCount 0
par task_offloading.car[8].veinsmobility accidentStart 31.3459s
attr unit s
par task_offloading.car[8].veinsmobility accidentDuration "uniform(30s, 60s)"
attr unit s
par task_offloading.car[8].veinsmobility accidentInterval "uniform(30s, 60s)"
attr unit s
scalar task_offloading.car[8].veinsmobility startTime 5.3
scalar task_offloading.car[8].veinsmobility totalTime 333.4
scalar task_offloading.car[8].veinsmobility stopTime 338.8
scalar task_offloading.car[8].veinsmobility minSpeed 0.25029536069301
scalar task_offloading.car[8].veinsmobility maxSpeed 13.496227079761
scalar task_offloading.car[8].veinsmobility totalDistance 2747.9566146801
scalar task_offloading.car[8].veinsmobility totalCO2Emission 666.84115650254
par task_offloading.car[8] typename "\"org.car2x.veins.nodes.Car\""
par task_offloading.car[8] applType "\"Worker\""
par task_offloading.car[8] nicType "\"Nic80211p\""
par task_offloading.car[8] veinsmobilityType "\"org.car2x.veins.modules.mobility.traci.TraCIMobility\""
par task_offloading.loadBalancingAlgorithm typename "\"task_offloading.app.loadBalancing.sortingAlgorithm.ComputationTime\""
par task_offloading.obstacles typename "\"org.car2x.veins.modules.obstacle.ObstacleControl\""
par task_offloading.obstacles obstacles "<obstacles>...</obstacles> at /home/debbo/workspace/task_offloading/simulations/task_offloading//config.xml:40"
par task_offloading.obstacles gridCellSize 250
par task_offloading.annotations typename "\"org.car2x.veins.modules.world.annotations.AnnotationManager\""
par task_offloading.annotations draw true
par task_offloading.annotations annotations "<annotations/> at content:1"
par task_offloading.connectionManager typename "\"org.car2x.veins.base.connectionManager.ConnectionManager\""
par task_offloading.connectionManager sendDirect true
par task_offloading.connectionManager maxInterfDist 2600m
attr unit m
par task_offloading.connectionManager drawMaxIntfDist false
par task_offloading.world typename "\"org.car2x.veins.base.modules.BaseWorldUtility\""
par task_offloading.world playgroundSizeX 3500m
attr unit m
par task_offloading.world playgroundSizeY 3500m
attr unit m
par task_offloading.world playgroundSizeZ 50m
attr unit m
par task_offloading.world useTorus false
par task_offloading.world use2D false
par task_offloading.manager typename "\"org.car2x.veins.modules.mobility.traci.TraCIScenarioManagerLaunchd\""
par task_offloading.manager connectAt 0s
attr unit s
par task_offloading.manager firstStepAt -1s
attr unit s
par task_offloading.manager updateInterval 0.1s
attr unit s
par task_offloading.manager moduleType "\"BUS=org.car2x.veins.nodes.Car CAR=org.car2x.veins.nodes.Car\""
par task_offloading.manager moduleName "\"BUS=bus CAR=car\""
par task_offloading.manager moduleDisplayString "\"BUS='i=veins/node/car_vs' CAR='i=veins/node/car_vs'\""
par task_offloading.manager trafficLightModuleType "\"\""
par task_offloading.manager trafficLightModuleName "\"tls\""
par task_offloading.manager trafficLightFilter "\"\""
par task_offloading.manager trafficLightModuleDisplayString "\"i=misc/node2;is=vs;r=0,,#707070,1\""
par task_offloading.manager host "\"localhost\""
par task_offloading.manager port 9999
par task_offloading.manager seed -1
par task_offloading.manager autoShutdown true
par task_offloading.manager margin 25
par task_offloading.manager roiRoads "\"\""
par task_offloading.manager roiRects "\"\""
par task_offloading.manager penetrationRate 1
par task_offloading.manager ignoreGuiCommands false
par task_offloading.manager launchConfig "<launch>...</launch> at /home/debbo/workspace/task_offloading/simulations/task_offloading//task_offloading.launchd.xml:35"
scalar task_offloading.manager roiArea 0
par task_offloading.roadsCanvasVisualizer typename "\"org.car2x.veins.visualizer.roads.RoadsCanvasVisualizer\""
par task_offloading.roadsCanvasVisualizer enabled true
par task_offloading.roadsCanvasVisualizer lineZIndex -1
par task_offloading.roadsCanvasVisualizer lineColor "\"firebrick4\""
par task_offloading.roadsCanvasVisualizer lineWidth 1
par task_offloading.roadsCanvasVisualizer lineWidthZoom false
par task_offloading typename "\"task_offloading.simulations.task_offloading.task_offloading\""
par task_offloading playgroundSizeX 3500m
attr unit m
par task_offloading playgroundSizeY 3500m
attr unit m
par task_offloading playgroundSizeZ 50m
attr unit m

